*SPEF "ieee 1481-1999"
*DESIGN "wrapped_etpu"
*DATE "11:11:11 Fri 11 11, 1111"
*VENDOR "OpenRCX"
*PROGRAM "Parallel Extraction"
*VERSION "1.0"
*DESIGN_FLOW "NAME_SCOPE LOCAL" "PIN_CAP NONE"
*DIVIDER /
*DELIMITER :
*BUS_DELIMITER []
*T_UNIT 1 NS
*C_UNIT 1 PF
*R_UNIT 1 OHM
*L_UNIT 1 HENRY

*NAME_MAP
*1 active
*2 io_in[0]
*3 io_in[10]
*4 io_in[11]
*5 io_in[12]
*6 io_in[13]
*7 io_in[14]
*8 io_in[15]
*9 io_in[16]
*10 io_in[17]
*11 io_in[18]
*12 io_in[19]
*13 io_in[1]
*14 io_in[20]
*15 io_in[21]
*16 io_in[22]
*17 io_in[23]
*18 io_in[24]
*19 io_in[25]
*20 io_in[26]
*21 io_in[27]
*22 io_in[28]
*23 io_in[29]
*24 io_in[2]
*25 io_in[30]
*26 io_in[31]
*27 io_in[32]
*28 io_in[33]
*29 io_in[34]
*30 io_in[35]
*31 io_in[36]
*32 io_in[37]
*33 io_in[3]
*34 io_in[4]
*35 io_in[5]
*36 io_in[6]
*37 io_in[7]
*38 io_in[8]
*39 io_in[9]
*40 io_oeb[0]
*41 io_oeb[10]
*42 io_oeb[11]
*43 io_oeb[12]
*44 io_oeb[13]
*45 io_oeb[14]
*46 io_oeb[15]
*47 io_oeb[16]
*48 io_oeb[17]
*49 io_oeb[18]
*50 io_oeb[19]
*51 io_oeb[1]
*52 io_oeb[20]
*53 io_oeb[21]
*54 io_oeb[22]
*55 io_oeb[23]
*56 io_oeb[24]
*57 io_oeb[25]
*58 io_oeb[26]
*59 io_oeb[27]
*60 io_oeb[28]
*61 io_oeb[29]
*62 io_oeb[2]
*63 io_oeb[30]
*64 io_oeb[31]
*65 io_oeb[32]
*66 io_oeb[33]
*67 io_oeb[34]
*68 io_oeb[35]
*69 io_oeb[36]
*70 io_oeb[37]
*71 io_oeb[3]
*72 io_oeb[4]
*73 io_oeb[5]
*74 io_oeb[6]
*75 io_oeb[7]
*76 io_oeb[8]
*77 io_oeb[9]
*78 io_out[0]
*79 io_out[10]
*80 io_out[11]
*81 io_out[12]
*82 io_out[13]
*83 io_out[14]
*84 io_out[15]
*85 io_out[16]
*86 io_out[17]
*87 io_out[18]
*88 io_out[19]
*89 io_out[1]
*90 io_out[20]
*91 io_out[21]
*92 io_out[22]
*93 io_out[23]
*94 io_out[24]
*95 io_out[25]
*96 io_out[26]
*97 io_out[27]
*98 io_out[28]
*99 io_out[29]
*100 io_out[2]
*101 io_out[30]
*102 io_out[31]
*103 io_out[32]
*104 io_out[33]
*105 io_out[34]
*106 io_out[35]
*107 io_out[36]
*108 io_out[37]
*109 io_out[3]
*110 io_out[4]
*111 io_out[5]
*112 io_out[6]
*113 io_out[7]
*114 io_out[8]
*115 io_out[9]
*118 wb_clk_i
*119 wb_rst_i
*120 wbs_ack_o
*121 wbs_adr_i[0]
*122 wbs_adr_i[10]
*123 wbs_adr_i[11]
*124 wbs_adr_i[12]
*125 wbs_adr_i[13]
*126 wbs_adr_i[14]
*127 wbs_adr_i[15]
*128 wbs_adr_i[16]
*129 wbs_adr_i[17]
*130 wbs_adr_i[18]
*131 wbs_adr_i[19]
*132 wbs_adr_i[1]
*133 wbs_adr_i[20]
*134 wbs_adr_i[21]
*135 wbs_adr_i[22]
*136 wbs_adr_i[23]
*137 wbs_adr_i[24]
*138 wbs_adr_i[25]
*139 wbs_adr_i[26]
*140 wbs_adr_i[27]
*141 wbs_adr_i[28]
*142 wbs_adr_i[29]
*143 wbs_adr_i[2]
*144 wbs_adr_i[30]
*145 wbs_adr_i[31]
*146 wbs_adr_i[3]
*147 wbs_adr_i[4]
*148 wbs_adr_i[5]
*149 wbs_adr_i[6]
*150 wbs_adr_i[7]
*151 wbs_adr_i[8]
*152 wbs_adr_i[9]
*153 wbs_cyc_i
*154 wbs_dat_i[0]
*155 wbs_dat_i[10]
*156 wbs_dat_i[11]
*157 wbs_dat_i[12]
*158 wbs_dat_i[13]
*159 wbs_dat_i[14]
*160 wbs_dat_i[15]
*161 wbs_dat_i[16]
*162 wbs_dat_i[17]
*163 wbs_dat_i[18]
*164 wbs_dat_i[19]
*165 wbs_dat_i[1]
*166 wbs_dat_i[20]
*167 wbs_dat_i[21]
*168 wbs_dat_i[22]
*169 wbs_dat_i[23]
*170 wbs_dat_i[24]
*171 wbs_dat_i[25]
*172 wbs_dat_i[26]
*173 wbs_dat_i[27]
*174 wbs_dat_i[28]
*175 wbs_dat_i[29]
*176 wbs_dat_i[2]
*177 wbs_dat_i[30]
*178 wbs_dat_i[31]
*179 wbs_dat_i[3]
*180 wbs_dat_i[4]
*181 wbs_dat_i[5]
*182 wbs_dat_i[6]
*183 wbs_dat_i[7]
*184 wbs_dat_i[8]
*185 wbs_dat_i[9]
*186 wbs_dat_o[0]
*187 wbs_dat_o[10]
*188 wbs_dat_o[11]
*189 wbs_dat_o[12]
*190 wbs_dat_o[13]
*191 wbs_dat_o[14]
*192 wbs_dat_o[15]
*193 wbs_dat_o[16]
*194 wbs_dat_o[17]
*195 wbs_dat_o[18]
*196 wbs_dat_o[19]
*197 wbs_dat_o[1]
*198 wbs_dat_o[20]
*199 wbs_dat_o[21]
*200 wbs_dat_o[22]
*201 wbs_dat_o[23]
*202 wbs_dat_o[24]
*203 wbs_dat_o[25]
*204 wbs_dat_o[26]
*205 wbs_dat_o[27]
*206 wbs_dat_o[28]
*207 wbs_dat_o[29]
*208 wbs_dat_o[2]
*209 wbs_dat_o[30]
*210 wbs_dat_o[31]
*211 wbs_dat_o[3]
*212 wbs_dat_o[4]
*213 wbs_dat_o[5]
*214 wbs_dat_o[6]
*215 wbs_dat_o[7]
*216 wbs_dat_o[8]
*217 wbs_dat_o[9]
*218 wbs_sel_i[0]
*219 wbs_sel_i[1]
*220 wbs_sel_i[2]
*221 wbs_sel_i[3]
*222 wbs_stb_i
*223 wbs_we_i
*224 _000_
*225 _001_
*226 _002_
*227 _003_
*228 _004_
*229 _005_
*230 _006_
*231 _007_
*232 _008_
*233 _009_
*234 _010_
*235 _011_
*236 _012_
*237 _013_
*238 _014_
*239 _015_
*240 _016_
*241 _017_
*242 _018_
*243 _019_
*244 _020_
*245 _021_
*246 _022_
*247 _023_
*248 _024_
*249 _025_
*250 _026_
*251 _027_
*252 _028_
*253 _029_
*254 _030_
*255 _031_
*256 _032_
*257 _033_
*258 _034_
*259 _035_
*260 _036_
*261 _037_
*262 _038_
*263 _039_
*264 _040_
*265 _041_
*266 _042_
*267 _043_
*268 _044_
*269 _045_
*270 _046_
*271 _047_
*272 _048_
*273 _049_
*274 _050_
*275 _051_
*276 _052_
*277 _053_
*278 _054_
*279 _055_
*280 _056_
*281 _057_
*282 _058_
*283 _059_
*284 _060_
*285 _061_
*286 _062_
*287 _063_
*288 _064_
*289 _065_
*290 _066_
*291 _067_
*292 _068_
*293 _069_
*294 _070_
*295 _071_
*296 _072_
*297 _073_
*298 _074_
*299 _075_
*300 _076_
*301 _077_
*302 _078_
*303 _079_
*304 _080_
*305 _081_
*306 _082_
*307 _083_
*308 _084_
*309 _085_
*310 _086_
*311 _087_
*312 _088_
*313 _089_
*314 _090_
*315 _091_
*316 _092_
*317 _093_
*318 _094_
*319 _095_
*320 _096_
*321 _097_
*322 _098_
*323 _099_
*324 _100_
*325 _101_
*326 _102_
*327 _103_
*328 _104_
*329 _105_
*330 _106_
*331 _107_
*332 _108_
*333 _109_
*334 _110_
*335 _111_
*336 _112_
*337 _113_
*338 _114_
*339 _115_
*340 _116_
*341 _117_
*342 _118_
*343 _119_
*344 _120_
*345 _121_
*346 _122_
*347 _123_
*348 _124_
*349 _125_
*350 _126_
*351 _127_
*352 _128_
*353 _129_
*354 _130_
*355 _131_
*356 _132_
*357 _133_
*358 _134_
*359 _135_
*360 _136_
*361 etpu\.caravel_wb_ack_o
*362 net1
*363 net10
*364 net100
*365 net101
*366 net102
*367 net103
*368 net104
*369 net105
*370 net106
*371 net107
*372 net108
*373 net109
*374 net11
*375 net110
*376 net111
*377 net112
*378 net12
*379 net13
*380 net14
*381 net15
*382 net16
*383 net17
*384 net18
*385 net19
*386 net2
*387 net20
*388 net21
*389 net22
*390 net23
*391 net24
*392 net25
*393 net26
*394 net27
*395 net28
*396 net29
*397 net3
*398 net30
*399 net31
*400 net32
*401 net33
*402 net34
*403 net35
*404 net36
*405 net37
*406 net38
*407 net39
*408 net4
*409 net40
*410 net41
*411 net42
*412 net43
*413 net44
*414 net45
*415 net46
*416 net47
*417 net48
*418 net49
*419 net5
*420 net50
*421 net51
*422 net52
*423 net53
*424 net54
*425 net55
*426 net56
*427 net57
*428 net58
*429 net59
*430 net6
*431 net60
*432 net61
*433 net62
*434 net63
*435 net64
*436 net65
*437 net66
*438 net67
*439 net68
*440 net69
*441 net7
*442 net70
*443 net71
*444 net72
*445 net73
*446 net74
*447 net75
*448 net76
*449 net77
*450 net78
*451 net79
*452 net8
*453 net80
*454 net81
*455 net82
*456 net83
*457 net84
*458 net85
*459 net86
*460 net87
*461 net88
*462 net89
*463 net9
*464 net90
*465 net91
*466 net92
*467 net93
*468 net94
*469 net95
*470 net96
*471 net97
*472 net98
*473 net99
*474 ANTENNA_0
*475 FILLER_0_109
*476 FILLER_0_113
*477 FILLER_0_125
*478 FILLER_0_137
*479 FILLER_0_141
*480 FILLER_0_15
*481 FILLER_0_153
*482 FILLER_0_165
*483 FILLER_0_169
*484 FILLER_0_181
*485 FILLER_0_193
*486 FILLER_0_197
*487 FILLER_0_209
*488 FILLER_0_221
*489 FILLER_0_225
*490 FILLER_0_237
*491 FILLER_0_249
*492 FILLER_0_253
*493 FILLER_0_265
*494 FILLER_0_27
*495 FILLER_0_277
*496 FILLER_0_281
*497 FILLER_0_285
*498 FILLER_0_29
*499 FILLER_0_292
*500 FILLER_0_3
*501 FILLER_0_304
*502 FILLER_0_309
*503 FILLER_0_321
*504 FILLER_0_333
*505 FILLER_0_337
*506 FILLER_0_349
*507 FILLER_0_361
*508 FILLER_0_365
*509 FILLER_0_377
*510 FILLER_0_389
*511 FILLER_0_393
*512 FILLER_0_405
*513 FILLER_0_41
*514 FILLER_0_417
*515 FILLER_0_424
*516 FILLER_0_433
*517 FILLER_0_445
*518 FILLER_0_449
*519 FILLER_0_461
*520 FILLER_0_473
*521 FILLER_0_477
*522 FILLER_0_489
*523 FILLER_0_501
*524 FILLER_0_505
*525 FILLER_0_517
*526 FILLER_0_529
*527 FILLER_0_53
*528 FILLER_0_533
*529 FILLER_0_545
*530 FILLER_0_557
*531 FILLER_0_561
*532 FILLER_0_57
*533 FILLER_0_573
*534 FILLER_0_585
*535 FILLER_0_589
*536 FILLER_0_601
*537 FILLER_0_613
*538 FILLER_0_617
*539 FILLER_0_629
*540 FILLER_0_641
*541 FILLER_0_645
*542 FILLER_0_657
*543 FILLER_0_669
*544 FILLER_0_673
*545 FILLER_0_685
*546 FILLER_0_69
*547 FILLER_0_697
*548 FILLER_0_701
*549 FILLER_0_713
*550 FILLER_0_725
*551 FILLER_0_729
*552 FILLER_0_81
*553 FILLER_0_85
*554 FILLER_0_97
*555 FILLER_100_101
*556 FILLER_100_105
*557 FILLER_100_130
*558 FILLER_100_138
*559 FILLER_100_141
*560 FILLER_100_15
*561 FILLER_100_153
*562 FILLER_100_165
*563 FILLER_100_177
*564 FILLER_100_189
*565 FILLER_100_195
*566 FILLER_100_197
*567 FILLER_100_209
*568 FILLER_100_221
*569 FILLER_100_233
*570 FILLER_100_245
*571 FILLER_100_251
*572 FILLER_100_253
*573 FILLER_100_265
*574 FILLER_100_27
*575 FILLER_100_277
*576 FILLER_100_289
*577 FILLER_100_29
*578 FILLER_100_3
*579 FILLER_100_301
*580 FILLER_100_307
*581 FILLER_100_309
*582 FILLER_100_321
*583 FILLER_100_333
*584 FILLER_100_345
*585 FILLER_100_357
*586 FILLER_100_363
*587 FILLER_100_365
*588 FILLER_100_377
*589 FILLER_100_389
*590 FILLER_100_401
*591 FILLER_100_41
*592 FILLER_100_413
*593 FILLER_100_419
*594 FILLER_100_421
*595 FILLER_100_433
*596 FILLER_100_445
*597 FILLER_100_457
*598 FILLER_100_469
*599 FILLER_100_475
*600 FILLER_100_477
*601 FILLER_100_489
*602 FILLER_100_501
*603 FILLER_100_513
*604 FILLER_100_518
*605 FILLER_100_53
*606 FILLER_100_530
*607 FILLER_100_533
*608 FILLER_100_545
*609 FILLER_100_557
*610 FILLER_100_569
*611 FILLER_100_581
*612 FILLER_100_587
*613 FILLER_100_589
*614 FILLER_100_601
*615 FILLER_100_613
*616 FILLER_100_625
*617 FILLER_100_637
*618 FILLER_100_643
*619 FILLER_100_645
*620 FILLER_100_65
*621 FILLER_100_657
*622 FILLER_100_669
*623 FILLER_100_681
*624 FILLER_100_693
*625 FILLER_100_699
*626 FILLER_100_701
*627 FILLER_100_713
*628 FILLER_100_725
*629 FILLER_100_77
*630 FILLER_100_83
*631 FILLER_100_85
*632 FILLER_100_97
*633 FILLER_101_105
*634 FILLER_101_111
*635 FILLER_101_113
*636 FILLER_101_125
*637 FILLER_101_137
*638 FILLER_101_149
*639 FILLER_101_15
*640 FILLER_101_161
*641 FILLER_101_167
*642 FILLER_101_169
*643 FILLER_101_181
*644 FILLER_101_193
*645 FILLER_101_205
*646 FILLER_101_217
*647 FILLER_101_223
*648 FILLER_101_225
*649 FILLER_101_237
*650 FILLER_101_249
*651 FILLER_101_261
*652 FILLER_101_27
*653 FILLER_101_273
*654 FILLER_101_279
*655 FILLER_101_281
*656 FILLER_101_293
*657 FILLER_101_3
*658 FILLER_101_305
*659 FILLER_101_317
*660 FILLER_101_329
*661 FILLER_101_335
*662 FILLER_101_337
*663 FILLER_101_349
*664 FILLER_101_361
*665 FILLER_101_373
*666 FILLER_101_385
*667 FILLER_101_39
*668 FILLER_101_391
*669 FILLER_101_393
*670 FILLER_101_405
*671 FILLER_101_417
*672 FILLER_101_429
*673 FILLER_101_441
*674 FILLER_101_447
*675 FILLER_101_449
*676 FILLER_101_461
*677 FILLER_101_473
*678 FILLER_101_485
*679 FILLER_101_497
*680 FILLER_101_503
*681 FILLER_101_505
*682 FILLER_101_51
*683 FILLER_101_513
*684 FILLER_101_535
*685 FILLER_101_547
*686 FILLER_101_55
*687 FILLER_101_559
*688 FILLER_101_561
*689 FILLER_101_57
*690 FILLER_101_573
*691 FILLER_101_585
*692 FILLER_101_597
*693 FILLER_101_609
*694 FILLER_101_615
*695 FILLER_101_617
*696 FILLER_101_629
*697 FILLER_101_641
*698 FILLER_101_653
*699 FILLER_101_665
*700 FILLER_101_671
*701 FILLER_101_673
*702 FILLER_101_685
*703 FILLER_101_69
*704 FILLER_101_697
*705 FILLER_101_709
*706 FILLER_101_721
*707 FILLER_101_727
*708 FILLER_101_729
*709 FILLER_101_81
*710 FILLER_101_93
*711 FILLER_102_109
*712 FILLER_102_121
*713 FILLER_102_133
*714 FILLER_102_139
*715 FILLER_102_141
*716 FILLER_102_15
*717 FILLER_102_153
*718 FILLER_102_165
*719 FILLER_102_177
*720 FILLER_102_189
*721 FILLER_102_195
*722 FILLER_102_197
*723 FILLER_102_209
*724 FILLER_102_221
*725 FILLER_102_233
*726 FILLER_102_245
*727 FILLER_102_251
*728 FILLER_102_253
*729 FILLER_102_265
*730 FILLER_102_27
*731 FILLER_102_277
*732 FILLER_102_289
*733 FILLER_102_29
*734 FILLER_102_3
*735 FILLER_102_301
*736 FILLER_102_307
*737 FILLER_102_309
*738 FILLER_102_321
*739 FILLER_102_333
*740 FILLER_102_345
*741 FILLER_102_357
*742 FILLER_102_363
*743 FILLER_102_365
*744 FILLER_102_377
*745 FILLER_102_389
*746 FILLER_102_401
*747 FILLER_102_41
*748 FILLER_102_413
*749 FILLER_102_419
*750 FILLER_102_421
*751 FILLER_102_433
*752 FILLER_102_445
*753 FILLER_102_457
*754 FILLER_102_469
*755 FILLER_102_475
*756 FILLER_102_477
*757 FILLER_102_489
*758 FILLER_102_501
*759 FILLER_102_513
*760 FILLER_102_518
*761 FILLER_102_53
*762 FILLER_102_530
*763 FILLER_102_533
*764 FILLER_102_545
*765 FILLER_102_557
*766 FILLER_102_569
*767 FILLER_102_581
*768 FILLER_102_587
*769 FILLER_102_589
*770 FILLER_102_601
*771 FILLER_102_613
*772 FILLER_102_625
*773 FILLER_102_637
*774 FILLER_102_643
*775 FILLER_102_645
*776 FILLER_102_65
*777 FILLER_102_657
*778 FILLER_102_669
*779 FILLER_102_681
*780 FILLER_102_693
*781 FILLER_102_699
*782 FILLER_102_701
*783 FILLER_102_713
*784 FILLER_102_725
*785 FILLER_102_77
*786 FILLER_102_83
*787 FILLER_102_85
*788 FILLER_102_97
*789 FILLER_103_105
*790 FILLER_103_111
*791 FILLER_103_113
*792 FILLER_103_125
*793 FILLER_103_137
*794 FILLER_103_149
*795 FILLER_103_15
*796 FILLER_103_161
*797 FILLER_103_167
*798 FILLER_103_169
*799 FILLER_103_181
*800 FILLER_103_193
*801 FILLER_103_205
*802 FILLER_103_217
*803 FILLER_103_223
*804 FILLER_103_225
*805 FILLER_103_237
*806 FILLER_103_249
*807 FILLER_103_261
*808 FILLER_103_27
*809 FILLER_103_273
*810 FILLER_103_279
*811 FILLER_103_281
*812 FILLER_103_285
*813 FILLER_103_297
*814 FILLER_103_3
*815 FILLER_103_309
*816 FILLER_103_321
*817 FILLER_103_333
*818 FILLER_103_337
*819 FILLER_103_349
*820 FILLER_103_361
*821 FILLER_103_373
*822 FILLER_103_385
*823 FILLER_103_39
*824 FILLER_103_391
*825 FILLER_103_393
*826 FILLER_103_405
*827 FILLER_103_417
*828 FILLER_103_429
*829 FILLER_103_441
*830 FILLER_103_447
*831 FILLER_103_449
*832 FILLER_103_461
*833 FILLER_103_473
*834 FILLER_103_485
*835 FILLER_103_497
*836 FILLER_103_503
*837 FILLER_103_505
*838 FILLER_103_51
*839 FILLER_103_517
*840 FILLER_103_529
*841 FILLER_103_541
*842 FILLER_103_55
*843 FILLER_103_553
*844 FILLER_103_559
*845 FILLER_103_561
*846 FILLER_103_57
*847 FILLER_103_573
*848 FILLER_103_585
*849 FILLER_103_597
*850 FILLER_103_609
*851 FILLER_103_615
*852 FILLER_103_617
*853 FILLER_103_629
*854 FILLER_103_641
*855 FILLER_103_653
*856 FILLER_103_665
*857 FILLER_103_671
*858 FILLER_103_673
*859 FILLER_103_685
*860 FILLER_103_69
*861 FILLER_103_697
*862 FILLER_103_709
*863 FILLER_103_721
*864 FILLER_103_727
*865 FILLER_103_729
*866 FILLER_103_81
*867 FILLER_103_93
*868 FILLER_104_109
*869 FILLER_104_121
*870 FILLER_104_133
*871 FILLER_104_139
*872 FILLER_104_141
*873 FILLER_104_15
*874 FILLER_104_153
*875 FILLER_104_165
*876 FILLER_104_177
*877 FILLER_104_189
*878 FILLER_104_195
*879 FILLER_104_197
*880 FILLER_104_209
*881 FILLER_104_221
*882 FILLER_104_233
*883 FILLER_104_245
*884 FILLER_104_251
*885 FILLER_104_253
*886 FILLER_104_265
*887 FILLER_104_27
*888 FILLER_104_271
*889 FILLER_104_275
*890 FILLER_104_29
*891 FILLER_104_3
*892 FILLER_104_300
*893 FILLER_104_309
*894 FILLER_104_321
*895 FILLER_104_333
*896 FILLER_104_345
*897 FILLER_104_357
*898 FILLER_104_363
*899 FILLER_104_365
*900 FILLER_104_377
*901 FILLER_104_389
*902 FILLER_104_401
*903 FILLER_104_41
*904 FILLER_104_413
*905 FILLER_104_419
*906 FILLER_104_421
*907 FILLER_104_433
*908 FILLER_104_445
*909 FILLER_104_457
*910 FILLER_104_469
*911 FILLER_104_475
*912 FILLER_104_477
*913 FILLER_104_489
*914 FILLER_104_501
*915 FILLER_104_513
*916 FILLER_104_525
*917 FILLER_104_53
*918 FILLER_104_531
*919 FILLER_104_533
*920 FILLER_104_545
*921 FILLER_104_557
*922 FILLER_104_569
*923 FILLER_104_581
*924 FILLER_104_587
*925 FILLER_104_589
*926 FILLER_104_601
*927 FILLER_104_613
*928 FILLER_104_625
*929 FILLER_104_637
*930 FILLER_104_643
*931 FILLER_104_645
*932 FILLER_104_65
*933 FILLER_104_657
*934 FILLER_104_669
*935 FILLER_104_681
*936 FILLER_104_693
*937 FILLER_104_699
*938 FILLER_104_701
*939 FILLER_104_713
*940 FILLER_104_725
*941 FILLER_104_77
*942 FILLER_104_83
*943 FILLER_104_85
*944 FILLER_104_97
*945 FILLER_105_105
*946 FILLER_105_111
*947 FILLER_105_113
*948 FILLER_105_125
*949 FILLER_105_137
*950 FILLER_105_149
*951 FILLER_105_15
*952 FILLER_105_161
*953 FILLER_105_167
*954 FILLER_105_169
*955 FILLER_105_181
*956 FILLER_105_193
*957 FILLER_105_205
*958 FILLER_105_217
*959 FILLER_105_223
*960 FILLER_105_225
*961 FILLER_105_237
*962 FILLER_105_249
*963 FILLER_105_261
*964 FILLER_105_27
*965 FILLER_105_276
*966 FILLER_105_3
*967 FILLER_105_302
*968 FILLER_105_314
*969 FILLER_105_326
*970 FILLER_105_334
*971 FILLER_105_337
*972 FILLER_105_349
*973 FILLER_105_361
*974 FILLER_105_373
*975 FILLER_105_385
*976 FILLER_105_39
*977 FILLER_105_391
*978 FILLER_105_393
*979 FILLER_105_405
*980 FILLER_105_417
*981 FILLER_105_429
*982 FILLER_105_441
*983 FILLER_105_447
*984 FILLER_105_449
*985 FILLER_105_461
*986 FILLER_105_473
*987 FILLER_105_485
*988 FILLER_105_497
*989 FILLER_105_503
*990 FILLER_105_508
*991 FILLER_105_51
*992 FILLER_105_520
*993 FILLER_105_532
*994 FILLER_105_544
*995 FILLER_105_55
*996 FILLER_105_556
*997 FILLER_105_561
*998 FILLER_105_57
*999 FILLER_105_573
*1000 FILLER_105_585
*1001 FILLER_105_597
*1002 FILLER_105_609
*1003 FILLER_105_615
*1004 FILLER_105_617
*1005 FILLER_105_629
*1006 FILLER_105_641
*1007 FILLER_105_653
*1008 FILLER_105_665
*1009 FILLER_105_671
*1010 FILLER_105_673
*1011 FILLER_105_685
*1012 FILLER_105_69
*1013 FILLER_105_697
*1014 FILLER_105_709
*1015 FILLER_105_721
*1016 FILLER_105_727
*1017 FILLER_105_729
*1018 FILLER_105_81
*1019 FILLER_105_93
*1020 FILLER_106_109
*1021 FILLER_106_121
*1022 FILLER_106_133
*1023 FILLER_106_139
*1024 FILLER_106_141
*1025 FILLER_106_15
*1026 FILLER_106_153
*1027 FILLER_106_165
*1028 FILLER_106_177
*1029 FILLER_106_189
*1030 FILLER_106_195
*1031 FILLER_106_197
*1032 FILLER_106_209
*1033 FILLER_106_221
*1034 FILLER_106_233
*1035 FILLER_106_241
*1036 FILLER_106_246
*1037 FILLER_106_253
*1038 FILLER_106_265
*1039 FILLER_106_27
*1040 FILLER_106_277
*1041 FILLER_106_282
*1042 FILLER_106_29
*1043 FILLER_106_294
*1044 FILLER_106_3
*1045 FILLER_106_306
*1046 FILLER_106_309
*1047 FILLER_106_321
*1048 FILLER_106_333
*1049 FILLER_106_345
*1050 FILLER_106_357
*1051 FILLER_106_363
*1052 FILLER_106_365
*1053 FILLER_106_377
*1054 FILLER_106_389
*1055 FILLER_106_401
*1056 FILLER_106_41
*1057 FILLER_106_413
*1058 FILLER_106_419
*1059 FILLER_106_421
*1060 FILLER_106_433
*1061 FILLER_106_445
*1062 FILLER_106_457
*1063 FILLER_106_469
*1064 FILLER_106_475
*1065 FILLER_106_477
*1066 FILLER_106_489
*1067 FILLER_106_496
*1068 FILLER_106_521
*1069 FILLER_106_529
*1070 FILLER_106_53
*1071 FILLER_106_533
*1072 FILLER_106_545
*1073 FILLER_106_557
*1074 FILLER_106_569
*1075 FILLER_106_581
*1076 FILLER_106_587
*1077 FILLER_106_589
*1078 FILLER_106_601
*1079 FILLER_106_613
*1080 FILLER_106_625
*1081 FILLER_106_637
*1082 FILLER_106_643
*1083 FILLER_106_645
*1084 FILLER_106_65
*1085 FILLER_106_657
*1086 FILLER_106_669
*1087 FILLER_106_681
*1088 FILLER_106_693
*1089 FILLER_106_699
*1090 FILLER_106_701
*1091 FILLER_106_713
*1092 FILLER_106_725
*1093 FILLER_106_77
*1094 FILLER_106_83
*1095 FILLER_106_85
*1096 FILLER_106_97
*1097 FILLER_107_105
*1098 FILLER_107_111
*1099 FILLER_107_113
*1100 FILLER_107_125
*1101 FILLER_107_13
*1102 FILLER_107_137
*1103 FILLER_107_149
*1104 FILLER_107_161
*1105 FILLER_107_167
*1106 FILLER_107_169
*1107 FILLER_107_181
*1108 FILLER_107_193
*1109 FILLER_107_205
*1110 FILLER_107_217
*1111 FILLER_107_223
*1112 FILLER_107_225
*1113 FILLER_107_237
*1114 FILLER_107_25
*1115 FILLER_107_259
*1116 FILLER_107_271
*1117 FILLER_107_279
*1118 FILLER_107_281
*1119 FILLER_107_293
*1120 FILLER_107_305
*1121 FILLER_107_317
*1122 FILLER_107_329
*1123 FILLER_107_335
*1124 FILLER_107_337
*1125 FILLER_107_349
*1126 FILLER_107_361
*1127 FILLER_107_37
*1128 FILLER_107_373
*1129 FILLER_107_385
*1130 FILLER_107_391
*1131 FILLER_107_393
*1132 FILLER_107_405
*1133 FILLER_107_417
*1134 FILLER_107_429
*1135 FILLER_107_441
*1136 FILLER_107_447
*1137 FILLER_107_449
*1138 FILLER_107_461
*1139 FILLER_107_473
*1140 FILLER_107_485
*1141 FILLER_107_49
*1142 FILLER_107_497
*1143 FILLER_107_503
*1144 FILLER_107_505
*1145 FILLER_107_517
*1146 FILLER_107_529
*1147 FILLER_107_541
*1148 FILLER_107_55
*1149 FILLER_107_553
*1150 FILLER_107_559
*1151 FILLER_107_561
*1152 FILLER_107_57
*1153 FILLER_107_573
*1154 FILLER_107_585
*1155 FILLER_107_597
*1156 FILLER_107_609
*1157 FILLER_107_615
*1158 FILLER_107_617
*1159 FILLER_107_629
*1160 FILLER_107_641
*1161 FILLER_107_653
*1162 FILLER_107_665
*1163 FILLER_107_671
*1164 FILLER_107_673
*1165 FILLER_107_685
*1166 FILLER_107_69
*1167 FILLER_107_697
*1168 FILLER_107_709
*1169 FILLER_107_721
*1170 FILLER_107_727
*1171 FILLER_107_729
*1172 FILLER_107_81
*1173 FILLER_107_93
*1174 FILLER_108_109
*1175 FILLER_108_121
*1176 FILLER_108_133
*1177 FILLER_108_139
*1178 FILLER_108_141
*1179 FILLER_108_15
*1180 FILLER_108_153
*1181 FILLER_108_165
*1182 FILLER_108_177
*1183 FILLER_108_189
*1184 FILLER_108_195
*1185 FILLER_108_197
*1186 FILLER_108_209
*1187 FILLER_108_221
*1188 FILLER_108_233
*1189 FILLER_108_237
*1190 FILLER_108_241
*1191 FILLER_108_249
*1192 FILLER_108_253
*1193 FILLER_108_265
*1194 FILLER_108_27
*1195 FILLER_108_277
*1196 FILLER_108_289
*1197 FILLER_108_29
*1198 FILLER_108_3
*1199 FILLER_108_301
*1200 FILLER_108_307
*1201 FILLER_108_309
*1202 FILLER_108_321
*1203 FILLER_108_333
*1204 FILLER_108_345
*1205 FILLER_108_357
*1206 FILLER_108_363
*1207 FILLER_108_365
*1208 FILLER_108_377
*1209 FILLER_108_389
*1210 FILLER_108_401
*1211 FILLER_108_41
*1212 FILLER_108_413
*1213 FILLER_108_419
*1214 FILLER_108_421
*1215 FILLER_108_433
*1216 FILLER_108_445
*1217 FILLER_108_457
*1218 FILLER_108_469
*1219 FILLER_108_475
*1220 FILLER_108_477
*1221 FILLER_108_489
*1222 FILLER_108_501
*1223 FILLER_108_513
*1224 FILLER_108_525
*1225 FILLER_108_53
*1226 FILLER_108_531
*1227 FILLER_108_533
*1228 FILLER_108_545
*1229 FILLER_108_557
*1230 FILLER_108_569
*1231 FILLER_108_577
*1232 FILLER_108_582
*1233 FILLER_108_589
*1234 FILLER_108_601
*1235 FILLER_108_613
*1236 FILLER_108_625
*1237 FILLER_108_637
*1238 FILLER_108_643
*1239 FILLER_108_645
*1240 FILLER_108_65
*1241 FILLER_108_657
*1242 FILLER_108_669
*1243 FILLER_108_681
*1244 FILLER_108_693
*1245 FILLER_108_699
*1246 FILLER_108_701
*1247 FILLER_108_713
*1248 FILLER_108_725
*1249 FILLER_108_77
*1250 FILLER_108_83
*1251 FILLER_108_85
*1252 FILLER_108_97
*1253 FILLER_109_105
*1254 FILLER_109_111
*1255 FILLER_109_113
*1256 FILLER_109_125
*1257 FILLER_109_137
*1258 FILLER_109_149
*1259 FILLER_109_15
*1260 FILLER_109_161
*1261 FILLER_109_167
*1262 FILLER_109_169
*1263 FILLER_109_181
*1264 FILLER_109_193
*1265 FILLER_109_205
*1266 FILLER_109_217
*1267 FILLER_109_223
*1268 FILLER_109_225
*1269 FILLER_109_237
*1270 FILLER_109_249
*1271 FILLER_109_261
*1272 FILLER_109_27
*1273 FILLER_109_273
*1274 FILLER_109_279
*1275 FILLER_109_281
*1276 FILLER_109_293
*1277 FILLER_109_3
*1278 FILLER_109_305
*1279 FILLER_109_317
*1280 FILLER_109_329
*1281 FILLER_109_335
*1282 FILLER_109_337
*1283 FILLER_109_349
*1284 FILLER_109_361
*1285 FILLER_109_373
*1286 FILLER_109_385
*1287 FILLER_109_39
*1288 FILLER_109_391
*1289 FILLER_109_393
*1290 FILLER_109_405
*1291 FILLER_109_417
*1292 FILLER_109_429
*1293 FILLER_109_441
*1294 FILLER_109_447
*1295 FILLER_109_449
*1296 FILLER_109_461
*1297 FILLER_109_473
*1298 FILLER_109_485
*1299 FILLER_109_493
*1300 FILLER_109_497
*1301 FILLER_109_503
*1302 FILLER_109_505
*1303 FILLER_109_51
*1304 FILLER_109_517
*1305 FILLER_109_529
*1306 FILLER_109_541
*1307 FILLER_109_55
*1308 FILLER_109_553
*1309 FILLER_109_559
*1310 FILLER_109_561
*1311 FILLER_109_57
*1312 FILLER_109_573
*1313 FILLER_109_579
*1314 FILLER_109_601
*1315 FILLER_109_613
*1316 FILLER_109_617
*1317 FILLER_109_629
*1318 FILLER_109_641
*1319 FILLER_109_653
*1320 FILLER_109_665
*1321 FILLER_109_671
*1322 FILLER_109_673
*1323 FILLER_109_685
*1324 FILLER_109_69
*1325 FILLER_109_692
*1326 FILLER_109_717
*1327 FILLER_109_725
*1328 FILLER_109_729
*1329 FILLER_109_81
*1330 FILLER_109_93
*1331 FILLER_10_109
*1332 FILLER_10_121
*1333 FILLER_10_133
*1334 FILLER_10_139
*1335 FILLER_10_141
*1336 FILLER_10_15
*1337 FILLER_10_153
*1338 FILLER_10_165
*1339 FILLER_10_177
*1340 FILLER_10_189
*1341 FILLER_10_195
*1342 FILLER_10_197
*1343 FILLER_10_209
*1344 FILLER_10_221
*1345 FILLER_10_233
*1346 FILLER_10_245
*1347 FILLER_10_251
*1348 FILLER_10_253
*1349 FILLER_10_265
*1350 FILLER_10_27
*1351 FILLER_10_277
*1352 FILLER_10_289
*1353 FILLER_10_29
*1354 FILLER_10_3
*1355 FILLER_10_301
*1356 FILLER_10_307
*1357 FILLER_10_309
*1358 FILLER_10_321
*1359 FILLER_10_333
*1360 FILLER_10_345
*1361 FILLER_10_357
*1362 FILLER_10_363
*1363 FILLER_10_365
*1364 FILLER_10_377
*1365 FILLER_10_389
*1366 FILLER_10_401
*1367 FILLER_10_41
*1368 FILLER_10_413
*1369 FILLER_10_419
*1370 FILLER_10_421
*1371 FILLER_10_433
*1372 FILLER_10_445
*1373 FILLER_10_457
*1374 FILLER_10_469
*1375 FILLER_10_475
*1376 FILLER_10_477
*1377 FILLER_10_489
*1378 FILLER_10_501
*1379 FILLER_10_513
*1380 FILLER_10_525
*1381 FILLER_10_53
*1382 FILLER_10_531
*1383 FILLER_10_533
*1384 FILLER_10_545
*1385 FILLER_10_557
*1386 FILLER_10_569
*1387 FILLER_10_581
*1388 FILLER_10_587
*1389 FILLER_10_589
*1390 FILLER_10_601
*1391 FILLER_10_613
*1392 FILLER_10_625
*1393 FILLER_10_637
*1394 FILLER_10_643
*1395 FILLER_10_645
*1396 FILLER_10_65
*1397 FILLER_10_657
*1398 FILLER_10_669
*1399 FILLER_10_681
*1400 FILLER_10_693
*1401 FILLER_10_699
*1402 FILLER_10_701
*1403 FILLER_10_713
*1404 FILLER_10_725
*1405 FILLER_10_77
*1406 FILLER_10_83
*1407 FILLER_10_85
*1408 FILLER_10_97
*1409 FILLER_110_109
*1410 FILLER_110_121
*1411 FILLER_110_133
*1412 FILLER_110_139
*1413 FILLER_110_141
*1414 FILLER_110_15
*1415 FILLER_110_153
*1416 FILLER_110_165
*1417 FILLER_110_177
*1418 FILLER_110_189
*1419 FILLER_110_195
*1420 FILLER_110_197
*1421 FILLER_110_209
*1422 FILLER_110_221
*1423 FILLER_110_233
*1424 FILLER_110_245
*1425 FILLER_110_251
*1426 FILLER_110_253
*1427 FILLER_110_265
*1428 FILLER_110_27
*1429 FILLER_110_277
*1430 FILLER_110_289
*1431 FILLER_110_29
*1432 FILLER_110_3
*1433 FILLER_110_301
*1434 FILLER_110_307
*1435 FILLER_110_309
*1436 FILLER_110_321
*1437 FILLER_110_333
*1438 FILLER_110_342
*1439 FILLER_110_354
*1440 FILLER_110_362
*1441 FILLER_110_365
*1442 FILLER_110_377
*1443 FILLER_110_389
*1444 FILLER_110_401
*1445 FILLER_110_41
*1446 FILLER_110_413
*1447 FILLER_110_419
*1448 FILLER_110_421
*1449 FILLER_110_433
*1450 FILLER_110_445
*1451 FILLER_110_457
*1452 FILLER_110_469
*1453 FILLER_110_475
*1454 FILLER_110_477
*1455 FILLER_110_489
*1456 FILLER_110_514
*1457 FILLER_110_526
*1458 FILLER_110_53
*1459 FILLER_110_536
*1460 FILLER_110_548
*1461 FILLER_110_560
*1462 FILLER_110_572
*1463 FILLER_110_583
*1464 FILLER_110_587
*1465 FILLER_110_589
*1466 FILLER_110_601
*1467 FILLER_110_613
*1468 FILLER_110_625
*1469 FILLER_110_637
*1470 FILLER_110_643
*1471 FILLER_110_645
*1472 FILLER_110_65
*1473 FILLER_110_657
*1474 FILLER_110_669
*1475 FILLER_110_681
*1476 FILLER_110_696
*1477 FILLER_110_722
*1478 FILLER_110_730
*1479 FILLER_110_77
*1480 FILLER_110_83
*1481 FILLER_110_85
*1482 FILLER_110_97
*1483 FILLER_111_105
*1484 FILLER_111_111
*1485 FILLER_111_113
*1486 FILLER_111_125
*1487 FILLER_111_137
*1488 FILLER_111_149
*1489 FILLER_111_15
*1490 FILLER_111_161
*1491 FILLER_111_167
*1492 FILLER_111_169
*1493 FILLER_111_181
*1494 FILLER_111_193
*1495 FILLER_111_205
*1496 FILLER_111_217
*1497 FILLER_111_223
*1498 FILLER_111_225
*1499 FILLER_111_237
*1500 FILLER_111_249
*1501 FILLER_111_261
*1502 FILLER_111_27
*1503 FILLER_111_273
*1504 FILLER_111_279
*1505 FILLER_111_281
*1506 FILLER_111_293
*1507 FILLER_111_3
*1508 FILLER_111_305
*1509 FILLER_111_317
*1510 FILLER_111_332
*1511 FILLER_111_358
*1512 FILLER_111_370
*1513 FILLER_111_382
*1514 FILLER_111_39
*1515 FILLER_111_390
*1516 FILLER_111_393
*1517 FILLER_111_405
*1518 FILLER_111_417
*1519 FILLER_111_429
*1520 FILLER_111_441
*1521 FILLER_111_447
*1522 FILLER_111_449
*1523 FILLER_111_461
*1524 FILLER_111_473
*1525 FILLER_111_485
*1526 FILLER_111_493
*1527 FILLER_111_497
*1528 FILLER_111_503
*1529 FILLER_111_505
*1530 FILLER_111_51
*1531 FILLER_111_517
*1532 FILLER_111_524
*1533 FILLER_111_549
*1534 FILLER_111_55
*1535 FILLER_111_557
*1536 FILLER_111_561
*1537 FILLER_111_57
*1538 FILLER_111_573
*1539 FILLER_111_585
*1540 FILLER_111_597
*1541 FILLER_111_609
*1542 FILLER_111_615
*1543 FILLER_111_620
*1544 FILLER_111_632
*1545 FILLER_111_644
*1546 FILLER_111_656
*1547 FILLER_111_668
*1548 FILLER_111_673
*1549 FILLER_111_685
*1550 FILLER_111_69
*1551 FILLER_111_693
*1552 FILLER_111_697
*1553 FILLER_111_704
*1554 FILLER_111_716
*1555 FILLER_111_729
*1556 FILLER_111_81
*1557 FILLER_111_93
*1558 FILLER_112_109
*1559 FILLER_112_121
*1560 FILLER_112_133
*1561 FILLER_112_139
*1562 FILLER_112_141
*1563 FILLER_112_15
*1564 FILLER_112_153
*1565 FILLER_112_165
*1566 FILLER_112_177
*1567 FILLER_112_189
*1568 FILLER_112_195
*1569 FILLER_112_197
*1570 FILLER_112_209
*1571 FILLER_112_221
*1572 FILLER_112_233
*1573 FILLER_112_245
*1574 FILLER_112_251
*1575 FILLER_112_253
*1576 FILLER_112_265
*1577 FILLER_112_27
*1578 FILLER_112_277
*1579 FILLER_112_289
*1580 FILLER_112_29
*1581 FILLER_112_3
*1582 FILLER_112_301
*1583 FILLER_112_307
*1584 FILLER_112_309
*1585 FILLER_112_324
*1586 FILLER_112_344
*1587 FILLER_112_351
*1588 FILLER_112_363
*1589 FILLER_112_365
*1590 FILLER_112_377
*1591 FILLER_112_389
*1592 FILLER_112_401
*1593 FILLER_112_41
*1594 FILLER_112_413
*1595 FILLER_112_419
*1596 FILLER_112_421
*1597 FILLER_112_433
*1598 FILLER_112_445
*1599 FILLER_112_457
*1600 FILLER_112_469
*1601 FILLER_112_475
*1602 FILLER_112_477
*1603 FILLER_112_489
*1604 FILLER_112_501
*1605 FILLER_112_513
*1606 FILLER_112_525
*1607 FILLER_112_53
*1608 FILLER_112_531
*1609 FILLER_112_536
*1610 FILLER_112_548
*1611 FILLER_112_560
*1612 FILLER_112_572
*1613 FILLER_112_584
*1614 FILLER_112_589
*1615 FILLER_112_601
*1616 FILLER_112_613
*1617 FILLER_112_635
*1618 FILLER_112_643
*1619 FILLER_112_645
*1620 FILLER_112_65
*1621 FILLER_112_657
*1622 FILLER_112_669
*1623 FILLER_112_681
*1624 FILLER_112_693
*1625 FILLER_112_699
*1626 FILLER_112_701
*1627 FILLER_112_713