*SPEF "ieee 1481-1999"
*DESIGN "wrapped_etpu"
*DATE "11:11:11 Fri 11 11, 1111"
*VENDOR "OpenRCX"
*PROGRAM "Parallel Extraction"
*VERSION "1.0"
*DESIGN_FLOW "NAME_SCOPE LOCAL" "PIN_CAP NONE"
*DIVIDER /
*DELIMITER :
*BUS_DELIMITER []
*T_UNIT 1 NS
*C_UNIT 1 PF
*R_UNIT 1 OHM
*L_UNIT 1 HENRY

*NAME_MAP
*1 active
*4 wb_clk_i
*5 wb_rst_i
*6 wbs_ack_o
*7 wbs_adr_i[0]
*8 wbs_adr_i[10]
*9 wbs_adr_i[11]
*10 wbs_adr_i[12]
*11 wbs_adr_i[13]
*12 wbs_adr_i[14]
*13 wbs_adr_i[15]
*14 wbs_adr_i[16]
*15 wbs_adr_i[17]
*16 wbs_adr_i[18]
*17 wbs_adr_i[19]
*18 wbs_adr_i[1]
*19 wbs_adr_i[20]
*20 wbs_adr_i[21]
*21 wbs_adr_i[22]
*22 wbs_adr_i[23]
*23 wbs_adr_i[24]
*24 wbs_adr_i[25]
*25 wbs_adr_i[26]
*26 wbs_adr_i[27]
*27 wbs_adr_i[28]
*28 wbs_adr_i[29]
*29 wbs_adr_i[2]
*30 wbs_adr_i[30]
*31 wbs_adr_i[31]
*32 wbs_adr_i[3]
*33 wbs_adr_i[4]
*34 wbs_adr_i[5]
*35 wbs_adr_i[6]
*36 wbs_adr_i[7]
*37 wbs_adr_i[8]
*38 wbs_adr_i[9]
*39 wbs_cyc_i
*40 wbs_dat_i[0]
*41 wbs_dat_i[10]
*42 wbs_dat_i[11]
*43 wbs_dat_i[12]
*44 wbs_dat_i[13]
*45 wbs_dat_i[14]
*46 wbs_dat_i[15]
*47 wbs_dat_i[16]
*48 wbs_dat_i[17]
*49 wbs_dat_i[18]
*50 wbs_dat_i[19]
*51 wbs_dat_i[1]
*52 wbs_dat_i[20]
*53 wbs_dat_i[21]
*54 wbs_dat_i[22]
*55 wbs_dat_i[23]
*56 wbs_dat_i[24]
*57 wbs_dat_i[25]
*58 wbs_dat_i[26]
*59 wbs_dat_i[27]
*60 wbs_dat_i[28]
*61 wbs_dat_i[29]
*62 wbs_dat_i[2]
*63 wbs_dat_i[30]
*64 wbs_dat_i[31]
*65 wbs_dat_i[3]
*66 wbs_dat_i[4]
*67 wbs_dat_i[5]
*68 wbs_dat_i[6]
*69 wbs_dat_i[7]
*70 wbs_dat_i[8]
*71 wbs_dat_i[9]
*72 wbs_dat_o[0]
*73 wbs_dat_o[10]
*74 wbs_dat_o[11]
*75 wbs_dat_o[12]
*76 wbs_dat_o[13]
*77 wbs_dat_o[14]
*78 wbs_dat_o[15]
*79 wbs_dat_o[16]
*80 wbs_dat_o[17]
*81 wbs_dat_o[18]
*82 wbs_dat_o[19]
*83 wbs_dat_o[1]
*84 wbs_dat_o[20]
*85 wbs_dat_o[21]
*86 wbs_dat_o[22]
*87 wbs_dat_o[23]
*88 wbs_dat_o[24]
*89 wbs_dat_o[25]
*90 wbs_dat_o[26]
*91 wbs_dat_o[27]
*92 wbs_dat_o[28]
*93 wbs_dat_o[29]
*94 wbs_dat_o[2]
*95 wbs_dat_o[30]
*96 wbs_dat_o[31]
*97 wbs_dat_o[3]
*98 wbs_dat_o[4]
*99 wbs_dat_o[5]
*100 wbs_dat_o[6]
*101 wbs_dat_o[7]
*102 wbs_dat_o[8]
*103 wbs_dat_o[9]
*104 wbs_sel_i[0]
*105 wbs_sel_i[1]
*106 wbs_sel_i[2]
*107 wbs_sel_i[3]
*108 wbs_stb_i
*109 wbs_we_i
*110 _000_
*111 _001_
*112 _002_
*113 _003_
*114 _004_
*115 _005_
*116 _006_
*117 _007_
*118 _008_
*119 _009_
*120 _010_
*121 _011_
*122 _012_
*123 _013_
*124 _014_
*125 _015_
*126 _016_
*127 _017_
*128 _018_
*129 _019_
*130 _020_
*131 _021_
*132 _022_
*133 _023_
*134 _024_
*135 _025_
*136 _026_
*137 _027_
*138 _028_
*139 _029_
*140 _030_
*141 _031_
*142 _032_
*143 _033_
*144 _034_
*145 _035_
*146 _036_
*147 _037_
*148 _038_
*149 _039_
*150 _040_
*151 _041_
*152 _042_
*153 _043_
*154 _044_
*155 _045_
*156 _046_
*157 _047_
*158 _048_
*159 _049_
*160 _050_
*161 _051_
*162 etpu\.caravel_wb_ack_o
*163 net1
*164 net10
*165 net11
*166 net12
*167 net13
*168 net14
*169 net15
*170 net16
*171 net17
*172 net18
*173 net19
*174 net2
*175 net20
*176 net21
*177 net22
*178 net23
*179 net24
*180 net25
*181 net26
*182 net27
*183 net28
*184 net29
*185 net3
*186 net30
*187 net31
*188 net32
*189 net33
*190 net34
*191 net35
*192 net36
*193 net37
*194 net38
*195 net39
*196 net4
*197 net40
*198 net41
*199 net42
*200 net43
*201 net44
*202 net45
*203 net46
*204 net47
*205 net48
*206 net49
*207 net5
*208 net50
*209 net51
*210 net52
*211 net53
*212 net54
*213 net55
*214 net56
*215 net57
*216 net58
*217 net59
*218 net6
*219 net60
*220 net61
*221 net62
*222 net63
*223 net64
*224 net65
*225 net66
*226 net67
*227 net7
*228 net8
*229 net9
*230 ANTENNA_0
*231 ANTENNA_1
*232 ANTENNA_2
*233 ANTENNA_3
*234 ANTENNA_4
*235 ANTENNA_5
*236 ANTENNA_6
*237 ANTENNA_7
*238 ANTENNA_8
*239 ANTENNA_9
*240 FILLER_0_109
*241 FILLER_0_113
*242 FILLER_0_125
*243 FILLER_0_137
*244 FILLER_0_141
*245 FILLER_0_15
*246 FILLER_0_153
*247 FILLER_0_163
*248 FILLER_0_167
*249 FILLER_0_169
*250 FILLER_0_181
*251 FILLER_0_193
*252 FILLER_0_197
*253 FILLER_0_209
*254 FILLER_0_221
*255 FILLER_0_225
*256 FILLER_0_237
*257 FILLER_0_249
*258 FILLER_0_253
*259 FILLER_0_265
*260 FILLER_0_27
*261 FILLER_0_277
*262 FILLER_0_281
*263 FILLER_0_29
*264 FILLER_0_293
*265 FILLER_0_3
*266 FILLER_0_301
*267 FILLER_0_307
*268 FILLER_0_309
*269 FILLER_0_321
*270 FILLER_0_333
*271 FILLER_0_337
*272 FILLER_0_349
*273 FILLER_0_361
*274 FILLER_0_365
*275 FILLER_0_377
*276 FILLER_0_389
*277 FILLER_0_393
*278 FILLER_0_405
*279 FILLER_0_41
*280 FILLER_0_417
*281 FILLER_0_421
*282 FILLER_0_433
*283 FILLER_0_443
*284 FILLER_0_447
*285 FILLER_0_449
*286 FILLER_0_461
*287 FILLER_0_473
*288 FILLER_0_477
*289 FILLER_0_489
*290 FILLER_0_501
*291 FILLER_0_505
*292 FILLER_0_517
*293 FILLER_0_529
*294 FILLER_0_53
*295 FILLER_0_533
*296 FILLER_0_545
*297 FILLER_0_557
*298 FILLER_0_561
*299 FILLER_0_57
*300 FILLER_0_573
*301 FILLER_0_585
*302 FILLER_0_589
*303 FILLER_0_601
*304 FILLER_0_613
*305 FILLER_0_617
*306 FILLER_0_629
*307 FILLER_0_641
*308 FILLER_0_645
*309 FILLER_0_657
*310 FILLER_0_667
*311 FILLER_0_671
*312 FILLER_0_673
*313 FILLER_0_685
*314 FILLER_0_69
*315 FILLER_0_695
*316 FILLER_0_699
*317 FILLER_0_701
*318 FILLER_0_713
*319 FILLER_0_725
*320 FILLER_0_729
*321 FILLER_0_79
*322 FILLER_0_83
*323 FILLER_0_85
*324 FILLER_0_97
*325 FILLER_100_109
*326 FILLER_100_121
*327 FILLER_100_133
*328 FILLER_100_139
*329 FILLER_100_141
*330 FILLER_100_15
*331 FILLER_100_153
*332 FILLER_100_165
*333 FILLER_100_177
*334 FILLER_100_189
*335 FILLER_100_195
*336 FILLER_100_197
*337 FILLER_100_209
*338 FILLER_100_221
*339 FILLER_100_233
*340 FILLER_100_245
*341 FILLER_100_251
*342 FILLER_100_253
*343 FILLER_100_265
*344 FILLER_100_27
*345 FILLER_100_277
*346 FILLER_100_289
*347 FILLER_100_29
*348 FILLER_100_3
*349 FILLER_100_301
*350 FILLER_100_307
*351 FILLER_100_309
*352 FILLER_100_321
*353 FILLER_100_333
*354 FILLER_100_345
*355 FILLER_100_357
*356 FILLER_100_363
*357 FILLER_100_365
*358 FILLER_100_377
*359 FILLER_100_389
*360 FILLER_100_401
*361 FILLER_100_41
*362 FILLER_100_413
*363 FILLER_100_419
*364 FILLER_100_421
*365 FILLER_100_433
*366 FILLER_100_445
*367 FILLER_100_457
*368 FILLER_100_469
*369 FILLER_100_475
*370 FILLER_100_477
*371 FILLER_100_489
*372 FILLER_100_501
*373 FILLER_100_513
*374 FILLER_100_525
*375 FILLER_100_53
*376 FILLER_100_531
*377 FILLER_100_533
*378 FILLER_100_545
*379 FILLER_100_557
*380 FILLER_100_569
*381 FILLER_100_581
*382 FILLER_100_587
*383 FILLER_100_589
*384 FILLER_100_601
*385 FILLER_100_613
*386 FILLER_100_625
*387 FILLER_100_637
*388 FILLER_100_643
*389 FILLER_100_645
*390 FILLER_100_65
*391 FILLER_100_657
*392 FILLER_100_669
*393 FILLER_100_681
*394 FILLER_100_693
*395 FILLER_100_699
*396 FILLER_100_701
*397 FILLER_100_713
*398 FILLER_100_725
*399 FILLER_100_77
*400 FILLER_100_83
*401 FILLER_100_85
*402 FILLER_100_97
*403 FILLER_101_105
*404 FILLER_101_111
*405 FILLER_101_113
*406 FILLER_101_125
*407 FILLER_101_137
*408 FILLER_101_149
*409 FILLER_101_15
*410 FILLER_101_161
*411 FILLER_101_167
*412 FILLER_101_169
*413 FILLER_101_181
*414 FILLER_101_193
*415 FILLER_101_205
*416 FILLER_101_217
*417 FILLER_101_223
*418 FILLER_101_225
*419 FILLER_101_237
*420 FILLER_101_249
*421 FILLER_101_261
*422 FILLER_101_27
*423 FILLER_101_273
*424 FILLER_101_279
*425 FILLER_101_281
*426 FILLER_101_293
*427 FILLER_101_3
*428 FILLER_101_305
*429 FILLER_101_317
*430 FILLER_101_329
*431 FILLER_101_335
*432 FILLER_101_337
*433 FILLER_101_349
*434 FILLER_101_361
*435 FILLER_101_373
*436 FILLER_101_385
*437 FILLER_101_39
*438 FILLER_101_391
*439 FILLER_101_393
*440 FILLER_101_405
*441 FILLER_101_417
*442 FILLER_101_429
*443 FILLER_101_441
*444 FILLER_101_447
*445 FILLER_101_449
*446 FILLER_101_461
*447 FILLER_101_473
*448 FILLER_101_485
*449 FILLER_101_497
*450 FILLER_101_503
*451 FILLER_101_505
*452 FILLER_101_51
*453 FILLER_101_517
*454 FILLER_101_529
*455 FILLER_101_541
*456 FILLER_101_55
*457 FILLER_101_553
*458 FILLER_101_559
*459 FILLER_101_561
*460 FILLER_101_57
*461 FILLER_101_573
*462 FILLER_101_585
*463 FILLER_101_597
*464 FILLER_101_609
*465 FILLER_101_615
*466 FILLER_101_617
*467 FILLER_101_629
*468 FILLER_101_641
*469 FILLER_101_653
*470 FILLER_101_665
*471 FILLER_101_671
*472 FILLER_101_673
*473 FILLER_101_685
*474 FILLER_101_69
*475 FILLER_101_697
*476 FILLER_101_709
*477 FILLER_101_721
*478 FILLER_101_727
*479 FILLER_101_729
*480 FILLER_101_81
*481 FILLER_101_93
*482 FILLER_102_109
*483 FILLER_102_121
*484 FILLER_102_133
*485 FILLER_102_139
*486 FILLER_102_141
*487 FILLER_102_15
*488 FILLER_102_153
*489 FILLER_102_165
*490 FILLER_102_177
*491 FILLER_102_189
*492 FILLER_102_195
*493 FILLER_102_197
*494 FILLER_102_209
*495 FILLER_102_221
*496 FILLER_102_233
*497 FILLER_102_245
*498 FILLER_102_251
*499 FILLER_102_253
*500 FILLER_102_265
*501 FILLER_102_27
*502 FILLER_102_277
*503 FILLER_102_289
*504 FILLER_102_29
*505 FILLER_102_3
*506 FILLER_102_301
*507 FILLER_102_307
*508 FILLER_102_309
*509 FILLER_102_321
*510 FILLER_102_333
*511 FILLER_102_345
*512 FILLER_102_357
*513 FILLER_102_363
*514 FILLER_102_365
*515 FILLER_102_377
*516 FILLER_102_389
*517 FILLER_102_401
*518 FILLER_102_41
*519 FILLER_102_413
*520 FILLER_102_419
*521 FILLER_102_421
*522 FILLER_102_433
*523 FILLER_102_445
*524 FILLER_102_457
*525 FILLER_102_469
*526 FILLER_102_475
*527 FILLER_102_477
*528 FILLER_102_489
*529 FILLER_102_501
*530 FILLER_102_513
*531 FILLER_102_525
*532 FILLER_102_53
*533 FILLER_102_531
*534 FILLER_102_533
*535 FILLER_102_545
*536 FILLER_102_557
*537 FILLER_102_569
*538 FILLER_102_581
*539 FILLER_102_587
*540 FILLER_102_589
*541 FILLER_102_601
*542 FILLER_102_613
*543 FILLER_102_625
*544 FILLER_102_637
*545 FILLER_102_643
*546 FILLER_102_645
*547 FILLER_102_65
*548 FILLER_102_657
*549 FILLER_102_669
*550 FILLER_102_681
*551 FILLER_102_693
*552 FILLER_102_699
*553 FILLER_102_701
*554 FILLER_102_713
*555 FILLER_102_725
*556 FILLER_102_77
*557 FILLER_102_83
*558 FILLER_102_85
*559 FILLER_102_97
*560 FILLER_103_105
*561 FILLER_103_111
*562 FILLER_103_113
*563 FILLER_103_125
*564 FILLER_103_137
*565 FILLER_103_149
*566 FILLER_103_15
*567 FILLER_103_161
*568 FILLER_103_167
*569 FILLER_103_169
*570 FILLER_103_181
*571 FILLER_103_193
*572 FILLER_103_205
*573 FILLER_103_217
*574 FILLER_103_223
*575 FILLER_103_225
*576 FILLER_103_237
*577 FILLER_103_249
*578 FILLER_103_261
*579 FILLER_103_27
*580 FILLER_103_273
*581 FILLER_103_279
*582 FILLER_103_281
*583 FILLER_103_293
*584 FILLER_103_3
*585 FILLER_103_305
*586 FILLER_103_317
*587 FILLER_103_329
*588 FILLER_103_335
*589 FILLER_103_337
*590 FILLER_103_349
*591 FILLER_103_361
*592 FILLER_103_373
*593 FILLER_103_385
*594 FILLER_103_39
*595 FILLER_103_391
*596 FILLER_103_393
*597 FILLER_103_405
*598 FILLER_103_417
*599 FILLER_103_429
*600 FILLER_103_441
*601 FILLER_103_447
*602 FILLER_103_449
*603 FILLER_103_461
*604 FILLER_103_473
*605 FILLER_103_485
*606 FILLER_103_497
*607 FILLER_103_503
*608 FILLER_103_505
*609 FILLER_103_51
*610 FILLER_103_517
*611 FILLER_103_529
*612 FILLER_103_541
*613 FILLER_103_547
*614 FILLER_103_55
*615 FILLER_103_551
*616 FILLER_103_559
*617 FILLER_103_561
*618 FILLER_103_57
*619 FILLER_103_573
*620 FILLER_103_585
*621 FILLER_103_597
*622 FILLER_103_609
*623 FILLER_103_615
*624 FILLER_103_617
*625 FILLER_103_629
*626 FILLER_103_641
*627 FILLER_103_653
*628 FILLER_103_665
*629 FILLER_103_671
*630 FILLER_103_673
*631 FILLER_103_685
*632 FILLER_103_69
*633 FILLER_103_697
*634 FILLER_103_709
*635 FILLER_103_721
*636 FILLER_103_727
*637 FILLER_103_729
*638 FILLER_103_81
*639 FILLER_103_93
*640 FILLER_104_109
*641 FILLER_104_121
*642 FILLER_104_133
*643 FILLER_104_139
*644 FILLER_104_141
*645 FILLER_104_15
*646 FILLER_104_153
*647 FILLER_104_165
*648 FILLER_104_177
*649 FILLER_104_189
*650 FILLER_104_195
*651 FILLER_104_197
*652 FILLER_104_209
*653 FILLER_104_221
*654 FILLER_104_233
*655 FILLER_104_245
*656 FILLER_104_251
*657 FILLER_104_253
*658 FILLER_104_265
*659 FILLER_104_27
*660 FILLER_104_277
*661 FILLER_104_289
*662 FILLER_104_29
*663 FILLER_104_3
*664 FILLER_104_301
*665 FILLER_104_307
*666 FILLER_104_309
*667 FILLER_104_321
*668 FILLER_104_333
*669 FILLER_104_345
*670 FILLER_104_357
*671 FILLER_104_363
*672 FILLER_104_365
*673 FILLER_104_377
*674 FILLER_104_389
*675 FILLER_104_401
*676 FILLER_104_41
*677 FILLER_104_413
*678 FILLER_104_419
*679 FILLER_104_421
*680 FILLER_104_433
*681 FILLER_104_445
*682 FILLER_104_457
*683 FILLER_104_469
*684 FILLER_104_475
*685 FILLER_104_477
*686 FILLER_104_489
*687 FILLER_104_501
*688 FILLER_104_513
*689 FILLER_104_525
*690 FILLER_104_53
*691 FILLER_104_531
*692 FILLER_104_533
*693 FILLER_104_545
*694 FILLER_104_570
*695 FILLER_104_582
*696 FILLER_104_589
*697 FILLER_104_601
*698 FILLER_104_613
*699 FILLER_104_625
*700 FILLER_104_637
*701 FILLER_104_643
*702 FILLER_104_645
*703 FILLER_104_65
*704 FILLER_104_657
*705 FILLER_104_669
*706 FILLER_104_681
*707 FILLER_104_693
*708 FILLER_104_699
*709 FILLER_104_701
*710 FILLER_104_713
*711 FILLER_104_725
*712 FILLER_104_77
*713 FILLER_104_83
*714 FILLER_104_85
*715 FILLER_104_97
*716 FILLER_105_105
*717 FILLER_105_111
*718 FILLER_105_113
*719 FILLER_105_125
*720 FILLER_105_137
*721 FILLER_105_149
*722 FILLER_105_15
*723 FILLER_105_161
*724 FILLER_105_167
*725 FILLER_105_169
*726 FILLER_105_181
*727 FILLER_105_193
*728 FILLER_105_205
*729 FILLER_105_217
*730 FILLER_105_223
*731 FILLER_105_225
*732 FILLER_105_237
*733 FILLER_105_249
*734 FILLER_105_261
*735 FILLER_105_27
*736 FILLER_105_273
*737 FILLER_105_279
*738 FILLER_105_281
*739 FILLER_105_293
*740 FILLER_105_3
*741 FILLER_105_305
*742 FILLER_105_317
*743 FILLER_105_329
*744 FILLER_105_335
*745 FILLER_105_337
*746 FILLER_105_349
*747 FILLER_105_361
*748 FILLER_105_373
*749 FILLER_105_385
*750 FILLER_105_39
*751 FILLER_105_391
*752 FILLER_105_393
*753 FILLER_105_405
*754 FILLER_105_417
*755 FILLER_105_429
*756 FILLER_105_441
*757 FILLER_105_447
*758 FILLER_105_449
*759 FILLER_105_461
*760 FILLER_105_473
*761 FILLER_105_485
*762 FILLER_105_497
*763 FILLER_105_503
*764 FILLER_105_505
*765 FILLER_105_51
*766 FILLER_105_517
*767 FILLER_105_529
*768 FILLER_105_541
*769 FILLER_105_549
*770 FILLER_105_55
*771 FILLER_105_553
*772 FILLER_105_559
*773 FILLER_105_561
*774 FILLER_105_57
*775 FILLER_105_573
*776 FILLER_105_585
*777 FILLER_105_597
*778 FILLER_105_609
*779 FILLER_105_615
*780 FILLER_105_617
*781 FILLER_105_629
*782 FILLER_105_641
*783 FILLER_105_653
*784 FILLER_105_665
*785 FILLER_105_671
*786 FILLER_105_673
*787 FILLER_105_685
*788 FILLER_105_69
*789 FILLER_105_697
*790 FILLER_105_709
*791 FILLER_105_717
*792 FILLER_105_724
*793 FILLER_105_729
*794 FILLER_105_81
*795 FILLER_105_93
*796 FILLER_106_109
*797 FILLER_106_121
*798 FILLER_106_133
*799 FILLER_106_139
*800 FILLER_106_141
*801 FILLER_106_153
*802 FILLER_106_165
*803 FILLER_106_177
*804 FILLER_106_189
*805 FILLER_106_19
*806 FILLER_106_195
*807 FILLER_106_197
*808 FILLER_106_209
*809 FILLER_106_221
*810 FILLER_106_233
*811 FILLER_106_245
*812 FILLER_106_251
*813 FILLER_106_253
*814 FILLER_106_265
*815 FILLER_106_27
*816 FILLER_106_277
*817 FILLER_106_289
*818 FILLER_106_29
*819 FILLER_106_301
*820 FILLER_106_307
*821 FILLER_106_309
*822 FILLER_106_321
*823 FILLER_106_333
*824 FILLER_106_345
*825 FILLER_106_357
*826 FILLER_106_363
*827 FILLER_106_365
*828 FILLER_106_377
*829 FILLER_106_389
*830 FILLER_106_401
*831 FILLER_106_41
*832 FILLER_106_413
*833 FILLER_106_419
*834 FILLER_106_421
*835 FILLER_106_429
*836 FILLER_106_441
*837 FILLER_106_453
*838 FILLER_106_465
*839 FILLER_106_473
*840 FILLER_106_477
*841 FILLER_106_489
*842 FILLER_106_501
*843 FILLER_106_513
*844 FILLER_106_525
*845 FILLER_106_53
*846 FILLER_106_531
*847 FILLER_106_533
*848 FILLER_106_545
*849 FILLER_106_557
*850 FILLER_106_569
*851 FILLER_106_581
*852 FILLER_106_587
*853 FILLER_106_589
*854 FILLER_106_601
*855 FILLER_106_613
*856 FILLER_106_625
*857 FILLER_106_637
*858 FILLER_106_643
*859 FILLER_106_645
*860 FILLER_106_65
*861 FILLER_106_657
*862 FILLER_106_669
*863 FILLER_106_681
*864 FILLER_106_693
*865 FILLER_106_699
*866 FILLER_106_7
*867 FILLER_106_701
*868 FILLER_106_713
*869 FILLER_106_725
*870 FILLER_106_77
*871 FILLER_106_83
*872 FILLER_106_85
*873 FILLER_106_97
*874 FILLER_107_105
*875 FILLER_107_111
*876 FILLER_107_113
*877 FILLER_107_125
*878 FILLER_107_137
*879 FILLER_107_149
*880 FILLER_107_15
*881 FILLER_107_161
*882 FILLER_107_167
*883 FILLER_107_169
*884 FILLER_107_181
*885 FILLER_107_193
*886 FILLER_107_205
*887 FILLER_107_217
*888 FILLER_107_223
*889 FILLER_107_225
*890 FILLER_107_237
*891 FILLER_107_249
*892 FILLER_107_261
*893 FILLER_107_27
*894 FILLER_107_273
*895 FILLER_107_279
*896 FILLER_107_281
*897 FILLER_107_293
*898 FILLER_107_3
*899 FILLER_107_305
*900 FILLER_107_317
*901 FILLER_107_329
*902 FILLER_107_335
*903 FILLER_107_337
*904 FILLER_107_349
*905 FILLER_107_361
*906 FILLER_107_373
*907 FILLER_107_385
*908 FILLER_107_39
*909 FILLER_107_391
*910 FILLER_107_393
*911 FILLER_107_405
*912 FILLER_107_417
*913 FILLER_107_429
*914 FILLER_107_441
*915 FILLER_107_447
*916 FILLER_107_449
*917 FILLER_107_461
*918 FILLER_107_473
*919 FILLER_107_485
*920 FILLER_107_497
*921 FILLER_107_503
*922 FILLER_107_505
*923 FILLER_107_51
*924 FILLER_107_517
*925 FILLER_107_529
*926 FILLER_107_541
*927 FILLER_107_55
*928 FILLER_107_553
*929 FILLER_107_559
*930 FILLER_107_561
*931 FILLER_107_57
*932 FILLER_107_573
*933 FILLER_107_585
*934 FILLER_107_597
*935 FILLER_107_609
*936 FILLER_107_615
*937 FILLER_107_617
*938 FILLER_107_629
*939 FILLER_107_641
*940 FILLER_107_653
*941 FILLER_107_665
*942 FILLER_107_671
*943 FILLER_107_673
*944 FILLER_107_685
*945 FILLER_107_69
*946 FILLER_107_697
*947 FILLER_107_709
*948 FILLER_107_721
*949 FILLER_107_727
*950 FILLER_107_729
*951 FILLER_107_81
*952 FILLER_107_93
*953 FILLER_108_109
*954 FILLER_108_121
*955 FILLER_108_133
*956 FILLER_108_139
*957 FILLER_108_141
*958 FILLER_108_15
*959 FILLER_108_153
*960 FILLER_108_165
*961 FILLER_108_177
*962 FILLER_108_189
*963 FILLER_108_195
*964 FILLER_108_197
*965 FILLER_108_209
*966 FILLER_108_221
*967 FILLER_108_233
*968 FILLER_108_245
*969 FILLER_108_251
*970 FILLER_108_253
*971 FILLER_108_265
*972 FILLER_108_27
*973 FILLER_108_277
*974 FILLER_108_289
*975 FILLER_108_29
*976 FILLER_108_3
*977 FILLER_108_301
*978 FILLER_108_307
*979 FILLER_108_309
*980 FILLER_108_321
*981 FILLER_108_333
*982 FILLER_108_345
*983 FILLER_108_357
*984 FILLER_108_363
*985 FILLER_108_365
*986 FILLER_108_377
*987 FILLER_108_389
*988 FILLER_108_401
*989 FILLER_108_41
*990 FILLER_108_413
*991 FILLER_108_419
*992 FILLER_108_421
*993 FILLER_108_433
*994 FILLER_108_445
*995 FILLER_108_457
*996 FILLER_108_469
*997 FILLER_108_475
*998 FILLER_108_477
*999 FILLER_108_489
*1000 FILLER_108_501
*1001 FILLER_108_513
*1002 FILLER_108_525
*1003 FILLER_108_53
*1004 FILLER_108_531
*1005 FILLER_108_533
*1006 FILLER_108_545
*1007 FILLER_108_557
*1008 FILLER_108_569
*1009 FILLER_108_581
*1010 FILLER_108_587
*1011 FILLER_108_589
*1012 FILLER_108_601
*1013 FILLER_108_613
*1014 FILLER_108_625
*1015 FILLER_108_637
*1016 FILLER_108_643
*1017 FILLER_108_645
*1018 FILLER_108_65
*1019 FILLER_108_657
*1020 FILLER_108_669
*1021 FILLER_108_681
*1022 FILLER_108_693
*1023 FILLER_108_699
*1024 FILLER_108_701
*1025 FILLER_108_713
*1026 FILLER_108_725
*1027 FILLER_108_77
*1028 FILLER_108_83
*1029 FILLER_108_85
*1030 FILLER_108_97
*1031 FILLER_109_105
*1032 FILLER_109_111
*1033 FILLER_109_113
*1034 FILLER_109_125
*1035 FILLER_109_137
*1036 FILLER_109_149
*1037 FILLER_109_15
*1038 FILLER_109_161
*1039 FILLER_109_167
*1040 FILLER_109_169
*1041 FILLER_109_181
*1042 FILLER_109_193
*1043 FILLER_109_205
*1044 FILLER_109_217
*1045 FILLER_109_223
*1046 FILLER_109_225
*1047 FILLER_109_237
*1048 FILLER_109_249
*1049 FILLER_109_261
*1050 FILLER_109_27
*1051 FILLER_109_273
*1052 FILLER_109_279
*1053 FILLER_109_281
*1054 FILLER_109_293
*1055 FILLER_109_3
*1056 FILLER_109_305
*1057 FILLER_109_317
*1058 FILLER_109_329
*1059 FILLER_109_335
*1060 FILLER_109_337
*1061 FILLER_109_349
*1062 FILLER_109_361
*1063 FILLER_109_373
*1064 FILLER_109_385
*1065 FILLER_109_39
*1066 FILLER_109_391
*1067 FILLER_109_393
*1068 FILLER_109_405
*1069 FILLER_109_417
*1070 FILLER_109_429
*1071 FILLER_109_441
*1072 FILLER_109_447
*1073 FILLER_109_449
*1074 FILLER_109_461
*1075 FILLER_109_473
*1076 FILLER_109_485
*1077 FILLER_109_497
*1078 FILLER_109_503
*1079 FILLER_109_505
*1080 FILLER_109_51
*1081 FILLER_109_517
*1082 FILLER_109_529
*1083 FILLER_109_541
*1084 FILLER_109_55
*1085 FILLER_109_553
*1086 FILLER_109_559
*1087 FILLER_109_561
*1088 FILLER_109_57
*1089 FILLER_109_573
*1090 FILLER_109_585
*1091 FILLER_109_597
*1092 FILLER_109_609
*1093 FILLER_109_615
*1094 FILLER_109_617
*1095 FILLER_109_629
*1096 FILLER_109_641
*1097 FILLER_109_653
*1098 FILLER_109_665
*1099 FILLER_109_671
*1100 FILLER_109_673
*1101 FILLER_109_685
*1102 FILLER_109_69
*1103 FILLER_109_697
*1104 FILLER_109_709
*1105 FILLER_109_721
*1106 FILLER_109_727
*1107 FILLER_109_729
*1108 FILLER_109_81
*1109 FILLER_109_93
*1110 FILLER_10_109
*1111 FILLER_10_121
*1112 FILLER_10_133
*1113 FILLER_10_139
*1114 FILLER_10_141
*1115 FILLER_10_15
*1116 FILLER_10_153
*1117 FILLER_10_165
*1118 FILLER_10_177
*1119 FILLER_10_189
*1120 FILLER_10_195
*1121 FILLER_10_197
*1122 FILLER_10_209
*1123 FILLER_10_221
*1124 FILLER_10_233
*1125 FILLER_10_245
*1126 FILLER_10_251
*1127 FILLER_10_253
*1128 FILLER_10_265
*1129 FILLER_10_27
*1130 FILLER_10_277
*1131 FILLER_10_289
*1132 FILLER_10_29
*1133 FILLER_10_3
*1134 FILLER_10_301
*1135 FILLER_10_307
*1136 FILLER_10_309
*1137 FILLER_10_321
*1138 FILLER_10_333
*1139 FILLER_10_345
*1140 FILLER_10_357
*1141 FILLER_10_363
*1142 FILLER_10_365
*1143 FILLER_10_377
*1144 FILLER_10_389
*1145 FILLER_10_401
*1146 FILLER_10_41
*1147 FILLER_10_413
*1148 FILLER_10_419
*1149 FILLER_10_421
*1150 FILLER_10_433
*1151 FILLER_10_445
*1152 FILLER_10_457
*1153 FILLER_10_469
*1154 FILLER_10_475
*1155 FILLER_10_477
*1156 FILLER_10_489
*1157 FILLER_10_501
*1158 FILLER_10_513
*1159 FILLER_10_525
*1160 FILLER_10_53
*1161 FILLER_10_531
*1162 FILLER_10_533
*1163 FILLER_10_545
*1164 FILLER_10_557
*1165 FILLER_10_569
*1166 FILLER_10_581
*1167 FILLER_10_587
*1168 FILLER_10_589
*1169 FILLER_10_601
*1170 FILLER_10_613
*1171 FILLER_10_625
*1172 FILLER_10_637
*1173 FILLER_10_643
*1174 FILLER_10_645
*1175 FILLER_10_65
*1176 FILLER_10_657
*1177 FILLER_10_669
*1178 FILLER_10_681
*1179 FILLER_10_693
*1180 FILLER_10_699
*1181 FILLER_10_701
*1182 FILLER_10_713
*1183 FILLER_10_725
*1184 FILLER_10_77
*1185 FILLER_10_83
*1186 FILLER_10_85
*1187 FILLER_10_97
*1188 FILLER_110_109
*1189 FILLER_110_121
*1190 FILLER_110_133
*1191 FILLER_110_139
*1192 FILLER_110_141
*1193 FILLER_110_15
*1194 FILLER_110_153
*1195 FILLER_110_165
*1196 FILLER_110_177
*1197 FILLER_110_189
*1198 FILLER_110_195
*1199 FILLER_110_197
*1200 FILLER_110_209
*1201 FILLER_110_221
*1202 FILLER_110_233
*1203 FILLER_110_245
*1204 FILLER_110_251
*1205 FILLER_110_253
*1206 FILLER_110_265
*1207 FILLER_110_27
*1208 FILLER_110_277
*1209 FILLER_110_289
*1210 FILLER_110_29
*1211 FILLER_110_3
*1212 FILLER_110_301
*1213 FILLER_110_307
*1214 FILLER_110_309
*1215 FILLER_110_321
*1216 FILLER_110_333
*1217 FILLER_110_345
*1218 FILLER_110_357
*1219 FILLER_110_363
*1220 FILLER_110_365
*1221 FILLER_110_377
*1222 FILLER_110_389
*1223 FILLER_110_401
*1224 FILLER_110_41
*1225 FILLER_110_413
*1226 FILLER_110_419
*1227 FILLER_110_421
*1228 FILLER_110_433
*1229 FILLER_110_445
*1230 FILLER_110_457
*1231 FILLER_110_469
*1232 FILLER_110_475
*1233 FILLER_110_477
*1234 FILLER_110_489
*1235 FILLER_110_501
*1236 FILLER_110_513
*1237 FILLER_110_525
*1238 FILLER_110_53
*1239 FILLER_110_531
*1240 FILLER_110_533
*1241 FILLER_110_545
*1242 FILLER_110_557
*1243 FILLER_110_569
*1244 FILLER_110_581
*1245 FILLER_110_587
*1246 FILLER_110_589
*1247 FILLER_110_601
*1248 FILLER_110_613
*1249 FILLER_110_625
*1250 FILLER_110_637
*1251 FILLER_110_643
*1252 FILLER_110_645
*1253 FILLER_110_65
*1254 FILLER_110_657
*1255 FILLER_110_669
*1256 FILLER_110_681
*1257 FILLER_110_693
*1258 FILLER_110_699
*1259 FILLER_110_701
*1260 FILLER_110_713
*1261 FILLER_110_721
*1262 FILLER_110_729
*1263 FILLER_110_77
*1264 FILLER_110_83
*1265 FILLER_110_85
*1266 FILLER_110_97
*1267 FILLER_111_105
*1268 FILLER_111_111
*1269 FILLER_111_113
*1270 FILLER_111_125
*1271 FILLER_111_13
*1272 FILLER_111_137
*1273 FILLER_111_149
*1274 FILLER_111_161
*1275 FILLER_111_167
*1276 FILLER_111_169
*1277 FILLER_111_181
*1278 FILLER_111_193
*1279 FILLER_111_205
*1280 FILLER_111_217
*1281 FILLER_111_223
*1282 FILLER_111_225
*1283 FILLER_111_237
*1284 FILLER_111_249
*1285 FILLER_111_25
*1286 FILLER_111_261
*1287 FILLER_111_273
*1288 FILLER_111_279
*1289 FILLER_111_281
*1290 FILLER_111_293
*1291 FILLER_111_3
*1292 FILLER_111_305
*1293 FILLER_111_317
*1294 FILLER_111_329
*1295 FILLER_111_335
*1296 FILLER_111_337
*1297 FILLER_111_349
*1298 FILLER_111_361
*1299 FILLER_111_37
*1300 FILLER_111_373
*1301 FILLER_111_385
*1302 FILLER_111_391
*1303 FILLER_111_393
*1304 FILLER_111_405
*1305 FILLER_111_417
*1306 FILLER_111_429
*1307 FILLER_111_441
*1308 FILLER_111_447
*1309 FILLER_111_449
*1310 FILLER_111_461
*1311 FILLER_111_473
*1312 FILLER_111_485
*1313 FILLER_111_49
*1314 FILLER_111_497
*1315 FILLER_111_503
*1316 FILLER_111_505
*1317 FILLER_111_517
*1318 FILLER_111_529
*1319 FILLER_111_541
*1320 FILLER_111_55
*1321 FILLER_111_553
*1322 FILLER_111_559
*1323 FILLER_111_561
*1324 FILLER_111_57
*1325 FILLER_111_573
*1326 FILLER_111_585
*1327 FILLER_111_597
*1328 FILLER_111_609
*1329 FILLER_111_615
*1330 FILLER_111_617
*1331 FILLER_111_629
*1332 FILLER_111_641
*1333 FILLER_111_653
*1334 FILLER_111_665
*1335 FILLER_111_671
*1336 FILLER_111_673
*1337 FILLER_111_685
*1338 FILLER_111_69
*1339 FILLER_111_697
*1340 FILLER_111_709
*1341 FILLER_111_721
*1342 FILLER_111_727
*1343 FILLER_111_729
*1344 FILLER_111_81
*1345 FILLER_111_93
*1346 FILLER_112_109
*1347 FILLER_112_121
*1348 FILLER_112_133
*1349 FILLER_112_139
*1350 FILLER_112_141
*1351 FILLER_112_15
*1352 FILLER_112_153
*1353 FILLER_112_165
*1354 FILLER_112_177
*1355 FILLER_112_189
*1356 FILLER_112_195
*1357 FILLER_112_197
*1358 FILLER_112_209
*1359 FILLER_112_221
*1360 FILLER_112_233
*1361 FILLER_112_245
*1362 FILLER_112_251
*1363 FILLER_112_253
*1364 FILLER_112_265
*1365 FILLER_112_27
*1366 FILLER_112_277
*1367 FILLER_112_289
*1368 FILLER_112_29
*1369 FILLER_112_3
*1370 FILLER_112_301
*1371 FILLER_112_307
*1372 FILLER_112_309
*1373 FILLER_112_321
*1374 FILLER_112_333
*1375 FILLER_112_345
*1376 FILLER_112_357
*1377 FILLER_112_363
*1378 FILLER_112_365
*1379 FILLER_112_377
*1380 FILLER_112_389
*1381 FILLER_112_401
*1382 FILLER_112_41
*1383 FILLER_112_413
*1384 FILLER_112_419
*1385 FILLER_112_421
*1386 FILLER_112_433
*1387 FILLER_112_445
*1388 FILLER_112_457
*1389 FILLER_112_469
*1390 FILLER_112_475
*1391 FILLER_112_477
*1392 FILLER_112_489
*1393 FILLER_112_501
*1394 FILLER_112_513
*1395 FILLER_112_525
*1396 FILLER_112_53
*1397 FILLER_112_531
*1398 FILLER_112_533
*1399 FILLER_112_545
*1400 FILLER_112_557
*1401 FILLER_112_569
*1402 FILLER_112_581
*1403 FILLER_112_587
*1404 FILLER_112_589
*1405 FILLER_112_601
*1406 FILLER_112_613
*1407 FILLER_112_625
*1408 FILLER_112_637
*1409 FILLER_112_643
*1410 FILLER_112_645
*1411 FILLER_112_65
*1412 FILLER_112_657
*1413 FILLER_112_669
*1414 FILLER_112_681
*1415 FILLER_112_693
*1416 FILLER_112_699
*1417 FILLER_112_701
*1418 FILLER_112_713
*1419 FILLER_112_725
*1420 FILLER_112_77
*1421 FILLER_112_83
*1422 FILLER_112_85
*1423 FILLER_112_97
*1424 FILLER_113_105
*1425 FILLER_113_111
*1426 FILLER_113_113
*1427 FILLER_113_125
*1428 FILLER_113_137
*1429 FILLER_113_149
*1430 FILLER_113_15
*1431 FILLER_113_161
*1432 FILLER_113_167
*1433 FILLER_113_169
*1434 FILLER_113_181
*1435 FILLER_113_193
*1436 FILLER_113_205
*1437 FILLER_113_217
*1438 FILLER_113_223
*1439 FILLER_113_225
*1440 FILLER_113_237
*1441 FILLER_113_249
*1442 FILLER_113_261
*1443 FILLER_113_27
*1444 FILLER_113_273
*1445 FILLER_113_279
*1446 FILLER_113_281
*1447 FILLER_113_293
*1448 FILLER_113_3
*1449 FILLER_113_305
*1450 FILLER_113_317
*1451 FILLER_113_329
*1452 FILLER_113_335
*1453 FILLER_113_337
*1454 FILLER_113_349
*1455 FILLER_113_361
*1456 FILLER_113_373
*1457 FILLER_113_385
*1458 FILLER_113_39
*1459 FILLER_113_391
*1460 FILLER_113_393
*1461 FILLER_113_405
*1462 FILLER_113_417
*1463 FILLER_113_429
*1464 FILLER_113_441
*1465 FILLER_113_447
*1466 FILLER_113_449
*1467 FILLER_113_461
*1468 FILLER_113_473
*1469 FILLER_113_485
*1470 FILLER_113_497
*1471 FILLER_113_503
*1472 FILLER_113_505
*1473 FILLER_113_51
*1474 FILLER_113_517
*1475 FILLER_113_529
*1476 FILLER_113_541
*1477 FILLER_113_55
*1478 FILLER_113_553
*1479 FILLER_113_559
*1480 FILLER_113_561
*1481 FILLER_113_57
*1482 FILLER_113_573
*1483 FILLER_113_585
*1484 FILLER_113_597
*1485 FILLER_113_609
*1486 FILLER_113_615
*1487 FILLER_113_617
*1488 FILLER_113_629
*1489 FILLER_113_641
*1490 FILLER_113_653
*1491 FILLER_113_665
*1492 FILLER_113_671
*1493 FILLER_113_673
*1494 FILLER_113_685
*1495 FILLER_113_69
*1496 FILLER_113_697
*1497 FILLER_113_709
*1498 FILLER_113_721
*1499 FILLER_113_727
*1500 FILLER_113_729
*1501 FILLER_113_81
*1502 FILLER_113_93
*1503 FILLER_114_109
*1504 FILLER_114_121
*1505 FILLER_114_133
*1506 FILLER_114_139
*1507 FILLER_114_141
*1508 FILLER_114_15
*1509 FILLER_114_153
*1510 FILLER_114_165
*1511 FILLER_114_177
*1512 FILLER_114_189
*1513 FILLER_114_195
*1514 FILLER_114_197
*1515 FILLER_114_209
*1516 FILLER_114_221
*1517 FILLER_114_233
*1518 FILLER_114_245
*1519 FILLER_114_251
*1520 FILLER_114_253
*1521 FILLER_114_265
*1522 FILLER_114_27
*1523 FILLER_114_277
*1524 FILLER_114_289
*1525 FILLER_114_29
*1526 FILLER_114_3
*1527 FILLER_114_301
*1528 FILLER_114_307
*1529 FILLER_114_309
*1530 FILLER_114_317
*1531 FILLER_114_340
*1532 FILLER_114_352
*1533 FILLER_114_365
*1534 FILLER_114_377
*1535 FILLER_114_389
*1536 FILLER_114_401
*1537 FILLER_114_41
*1538 FILLER_114_413
*1539 FILLER_114_419
*1540 FILLER_114_421
*1541 FILLER_114_433
*1542 FILLER_114_445
*1543 FILLER_114_457
*1544 FILLER_114_469
*1545 FILLER_114_475
*1546 FILLER_114_477
*1547 FILLER_114_489
*1548 FILLER_114_501
*1549 FILLER_114_513
*1550 FILLER_114_525
*1551 FILLER_114_53