*SPEF "ieee 1481-1999"
*DESIGN "wrapped_etpu"
*DATE "11:11:11 Fri 11 11, 1111"
*VENDOR "OpenRCX"
*PROGRAM "Parallel Extraction"
*VERSION "1.0"
*DESIGN_FLOW "NAME_SCOPE LOCAL" "PIN_CAP NONE"
*DIVIDER /
*DELIMITER :
*BUS_DELIMITER []
*T_UNIT 1 NS
*C_UNIT 1 PF
*R_UNIT 1 OHM
*L_UNIT 1 HENRY

*NAME_MAP
*1 active
*2 io_in[0]
*3 io_in[10]
*4 io_in[11]
*5 io_in[12]
*6 io_in[13]
*7 io_in[14]
*8 io_in[15]
*9 io_in[16]
*10 io_in[17]
*11 io_in[18]
*12 io_in[19]
*13 io_in[1]
*14 io_in[20]
*15 io_in[21]
*16 io_in[22]
*17 io_in[23]
*18 io_in[24]
*19 io_in[25]
*20 io_in[26]
*21 io_in[27]
*22 io_in[28]
*23 io_in[29]
*24 io_in[2]
*25 io_in[30]
*26 io_in[31]
*27 io_in[32]
*28 io_in[33]
*29 io_in[34]
*30 io_in[35]
*31 io_in[36]
*32 io_in[37]
*33 io_in[3]
*34 io_in[4]
*35 io_in[5]
*36 io_in[6]
*37 io_in[7]
*38 io_in[8]
*39 io_in[9]
*40 io_oeb[0]
*41 io_oeb[10]
*42 io_oeb[11]
*43 io_oeb[12]
*44 io_oeb[13]
*45 io_oeb[14]
*46 io_oeb[15]
*47 io_oeb[16]
*48 io_oeb[17]
*49 io_oeb[18]
*50 io_oeb[19]
*51 io_oeb[1]
*52 io_oeb[20]
*53 io_oeb[21]
*54 io_oeb[22]
*55 io_oeb[23]
*56 io_oeb[24]
*57 io_oeb[25]
*58 io_oeb[26]
*59 io_oeb[27]
*60 io_oeb[28]
*61 io_oeb[29]
*62 io_oeb[2]
*63 io_oeb[30]
*64 io_oeb[31]
*65 io_oeb[32]
*66 io_oeb[33]
*67 io_oeb[34]
*68 io_oeb[35]
*69 io_oeb[36]
*70 io_oeb[37]
*71 io_oeb[3]
*72 io_oeb[4]
*73 io_oeb[5]
*74 io_oeb[6]
*75 io_oeb[7]
*76 io_oeb[8]
*77 io_oeb[9]
*78 io_out[0]
*79 io_out[10]
*80 io_out[11]
*81 io_out[12]
*82 io_out[13]
*83 io_out[14]
*84 io_out[15]
*85 io_out[16]
*86 io_out[17]
*87 io_out[18]
*88 io_out[19]
*89 io_out[1]
*90 io_out[20]
*91 io_out[21]
*92 io_out[22]
*93 io_out[23]
*94 io_out[24]
*95 io_out[25]
*96 io_out[26]
*97 io_out[27]
*98 io_out[28]
*99 io_out[29]
*100 io_out[2]
*101 io_out[30]
*102 io_out[31]
*103 io_out[32]
*104 io_out[33]
*105 io_out[34]
*106 io_out[35]
*107 io_out[36]
*108 io_out[37]
*109 io_out[3]
*110 io_out[4]
*111 io_out[5]
*112 io_out[6]
*113 io_out[7]
*114 io_out[8]
*115 io_out[9]
*118 wb_clk_i
*119 wb_rst_i
*120 wbs_ack_o
*121 wbs_adr_i[0]
*122 wbs_adr_i[10]
*123 wbs_adr_i[11]
*124 wbs_adr_i[12]
*125 wbs_adr_i[13]
*126 wbs_adr_i[14]
*127 wbs_adr_i[15]
*128 wbs_adr_i[16]
*129 wbs_adr_i[17]
*130 wbs_adr_i[18]
*131 wbs_adr_i[19]
*132 wbs_adr_i[1]
*133 wbs_adr_i[20]
*134 wbs_adr_i[21]
*135 wbs_adr_i[22]
*136 wbs_adr_i[23]
*137 wbs_adr_i[24]
*138 wbs_adr_i[25]
*139 wbs_adr_i[26]
*140 wbs_adr_i[27]
*141 wbs_adr_i[28]
*142 wbs_adr_i[29]
*143 wbs_adr_i[2]
*144 wbs_adr_i[30]
*145 wbs_adr_i[31]
*146 wbs_adr_i[3]
*147 wbs_adr_i[4]
*148 wbs_adr_i[5]
*149 wbs_adr_i[6]
*150 wbs_adr_i[7]
*151 wbs_adr_i[8]
*152 wbs_adr_i[9]
*153 wbs_cyc_i
*154 wbs_dat_i[0]
*155 wbs_dat_i[10]
*156 wbs_dat_i[11]
*157 wbs_dat_i[12]
*158 wbs_dat_i[13]
*159 wbs_dat_i[14]
*160 wbs_dat_i[15]
*161 wbs_dat_i[16]
*162 wbs_dat_i[17]
*163 wbs_dat_i[18]
*164 wbs_dat_i[19]
*165 wbs_dat_i[1]
*166 wbs_dat_i[20]
*167 wbs_dat_i[21]
*168 wbs_dat_i[22]
*169 wbs_dat_i[23]
*170 wbs_dat_i[24]
*171 wbs_dat_i[25]
*172 wbs_dat_i[26]
*173 wbs_dat_i[27]
*174 wbs_dat_i[28]
*175 wbs_dat_i[29]
*176 wbs_dat_i[2]
*177 wbs_dat_i[30]
*178 wbs_dat_i[31]
*179 wbs_dat_i[3]
*180 wbs_dat_i[4]
*181 wbs_dat_i[5]
*182 wbs_dat_i[6]
*183 wbs_dat_i[7]
*184 wbs_dat_i[8]
*185 wbs_dat_i[9]
*186 wbs_dat_o[0]
*187 wbs_dat_o[10]
*188 wbs_dat_o[11]
*189 wbs_dat_o[12]
*190 wbs_dat_o[13]
*191 wbs_dat_o[14]
*192 wbs_dat_o[15]
*193 wbs_dat_o[16]
*194 wbs_dat_o[17]
*195 wbs_dat_o[18]
*196 wbs_dat_o[19]
*197 wbs_dat_o[1]
*198 wbs_dat_o[20]
*199 wbs_dat_o[21]
*200 wbs_dat_o[22]
*201 wbs_dat_o[23]
*202 wbs_dat_o[24]
*203 wbs_dat_o[25]
*204 wbs_dat_o[26]
*205 wbs_dat_o[27]
*206 wbs_dat_o[28]
*207 wbs_dat_o[29]
*208 wbs_dat_o[2]
*209 wbs_dat_o[30]
*210 wbs_dat_o[31]
*211 wbs_dat_o[3]
*212 wbs_dat_o[4]
*213 wbs_dat_o[5]
*214 wbs_dat_o[6]
*215 wbs_dat_o[7]
*216 wbs_dat_o[8]
*217 wbs_dat_o[9]
*218 wbs_sel_i[0]
*219 wbs_sel_i[1]
*220 wbs_sel_i[2]
*221 wbs_sel_i[3]
*222 wbs_stb_i
*223 wbs_we_i
*224 _0000_
*225 _0001_
*226 _0002_
*227 _0003_
*228 _0004_
*229 _0005_
*230 _0006_
*231 _0007_
*232 _0008_
*233 _0009_
*234 _0010_
*235 _0011_
*236 _0012_
*237 _0013_
*238 _0014_
*239 _0015_
*240 _0016_
*241 _0017_
*242 _0018_
*243 _0019_
*244 _0020_
*245 _0021_
*246 _0022_
*247 _0023_
*248 _0024_
*249 _0025_
*250 _0026_
*251 _0027_
*252 _0028_
*253 _0029_
*254 _0030_
*255 _0031_
*256 _0032_
*257 _0033_
*258 _0034_
*259 _0035_
*260 _0036_
*261 _0037_
*262 _0038_
*263 _0039_
*264 _0040_
*265 _0041_
*266 _0042_
*267 _0043_
*268 _0044_
*269 _0045_
*270 _0046_
*271 _0047_
*272 _0048_
*273 _0049_
*274 _0050_
*275 _0051_
*276 _0052_
*277 _0053_
*278 _0054_
*279 _0055_
*280 _0056_
*281 _0057_
*282 _0058_
*283 _0059_
*284 _0060_
*285 _0061_
*286 _0062_
*287 _0063_
*288 _0064_
*289 _0065_
*290 _0066_
*291 _0067_
*292 _0068_
*293 _0069_
*294 _0070_
*295 _0071_
*296 _0072_
*297 _0073_
*298 _0074_
*299 _0075_
*300 _0076_
*301 _0077_
*302 _0078_
*303 _0079_
*304 _0080_
*305 _0081_
*306 _0082_
*307 _0083_
*308 _0084_
*309 _0085_
*310 _0086_
*311 _0087_
*312 _0088_
*313 _0089_
*314 _0090_
*315 _0091_
*316 _0092_
*317 _0093_
*318 _0094_
*319 _0095_
*320 _0096_
*321 _0097_
*322 _0098_
*323 _0099_
*324 _0100_
*325 _0101_
*326 _0102_
*327 _0103_
*328 _0104_
*329 _0105_
*330 _0106_
*331 _0107_
*332 _0108_
*333 _0109_
*334 _0110_
*335 _0111_
*336 _0112_
*337 _0113_
*338 _0114_
*339 _0115_
*340 _0116_
*341 _0117_
*342 _0118_
*343 _0119_
*344 _0120_
*345 _0121_
*346 _0122_
*347 _0123_
*348 _0124_
*349 _0125_
*350 _0126_
*351 _0127_
*352 _0128_
*353 _0129_
*354 _0130_
*355 _0131_
*356 _0132_
*357 _0133_
*358 _0134_
*359 _0135_
*360 _0136_
*361 _0137_
*362 _0138_
*363 _0139_
*364 _0140_
*365 _0141_
*366 _0142_
*367 _0143_
*368 _0144_
*369 _0145_
*370 _0146_
*371 _0147_
*372 _0148_
*373 _0149_
*374 _0150_
*375 _0151_
*376 _0152_
*377 _0153_
*378 _0154_
*379 _0155_
*380 _0156_
*381 _0157_
*382 _0158_
*383 _0159_
*384 _0160_
*385 _0161_
*386 _0162_
*387 _0163_
*388 _0164_
*389 _0165_
*390 _0166_
*391 _0167_
*392 _0168_
*393 _0169_
*394 _0170_
*395 _0171_
*396 _0172_
*397 _0173_
*398 _0174_
*399 _0175_
*400 _0176_
*401 _0177_
*402 _0178_
*403 _0179_
*404 _0180_
*405 _0181_
*406 _0182_
*407 _0183_
*408 _0184_
*409 _0185_
*410 _0186_
*411 _0187_
*412 _0188_
*413 _0189_
*414 _0190_
*415 _0191_
*416 _0192_
*417 _0193_
*418 _0194_
*419 _0195_
*420 _0196_
*421 _0197_
*422 _0198_
*423 _0199_
*424 _0200_
*425 _0201_
*426 _0202_
*427 _0203_
*428 _0204_
*429 _0205_
*430 _0206_
*431 _0207_
*432 _0208_
*433 _0209_
*434 _0210_
*435 _0211_
*436 _0212_
*437 _0213_
*438 _0214_
*439 _0215_
*440 _0216_
*441 _0217_
*442 _0218_
*443 _0219_
*444 _0220_
*445 _0221_
*446 _0222_
*447 _0223_
*448 _0224_
*449 _0225_
*450 _0226_
*451 _0227_
*452 _0228_
*453 _0229_
*454 _0230_
*455 _0231_
*456 _0232_
*457 _0233_
*458 _0234_
*459 _0235_
*460 _0236_
*461 _0237_
*462 _0238_
*463 _0239_
*464 _0240_
*465 _0241_
*466 _0242_
*467 _0243_
*468 _0244_
*469 _0245_
*470 _0246_
*471 _0247_
*472 _0248_
*473 _0249_
*474 _0250_
*475 _0251_
*476 _0252_
*477 _0253_
*478 _0254_
*479 _0255_
*480 _0256_
*481 _0257_
*482 _0258_
*483 _0259_
*484 _0260_
*485 _0261_
*486 _0262_
*487 _0263_
*488 _0264_
*489 _0265_
*490 _0266_
*491 _0267_
*492 _0268_
*493 _0269_
*494 _0270_
*495 _0271_
*496 _0272_
*497 _0273_
*498 _0274_
*499 _0275_
*500 _0276_
*501 _0277_
*502 _0278_
*503 _0279_
*504 _0280_
*505 _0281_
*506 _0282_
*507 _0283_
*508 _0284_
*509 _0285_
*510 _0286_
*511 _0287_
*512 _0288_
*513 _0289_
*514 _0290_
*515 _0291_
*516 _0292_
*517 _0293_
*518 _0294_
*519 _0295_
*520 _0296_
*521 _0297_
*522 _0298_
*523 _0299_
*524 _0300_
*525 _0301_
*526 _0302_
*527 _0303_
*528 _0304_
*529 _0305_
*530 _0306_
*531 _0307_
*532 _0308_
*533 _0309_
*534 _0310_
*535 _0311_
*536 _0312_
*537 _0313_
*538 _0314_
*539 _0315_
*540 _0316_
*541 _0317_
*542 _0318_
*543 _0319_
*544 _0320_
*545 _0321_
*546 _0322_
*547 _0323_
*548 _0324_
*549 _0325_
*550 _0326_
*551 _0327_
*552 _0328_
*553 _0329_
*554 _0330_
*555 _0331_
*556 _0332_
*557 _0333_
*558 _0334_
*559 _0335_
*560 _0336_
*561 _0337_
*562 _0338_
*563 _0339_
*564 _0340_
*565 _0341_
*566 _0342_
*567 _0343_
*568 _0344_
*569 _0345_
*570 _0346_
*571 _0347_
*572 _0348_
*573 _0349_
*574 _0350_
*575 _0351_
*576 _0352_
*577 _0353_
*578 _0354_
*579 _0355_
*580 _0356_
*581 _0357_
*582 _0358_
*583 _0359_
*584 _0360_
*585 _0361_
*586 _0362_
*587 _0363_
*588 _0364_
*589 _0365_
*590 _0366_
*591 _0367_
*592 _0368_
*593 _0369_
*594 _0370_
*595 _0371_
*596 _0372_
*597 _0373_
*598 _0374_
*599 _0375_
*600 _0376_
*601 _0377_
*602 _0378_
*603 _0379_
*604 _0380_
*605 _0381_
*606 _0382_
*607 _0383_
*608 _0384_
*609 _0385_
*610 _0386_
*611 _0387_
*612 _0388_
*613 _0389_
*614 _0390_
*615 _0391_
*616 _0392_
*617 _0393_
*618 _0394_
*619 _0395_
*620 _0396_
*621 _0397_
*622 _0398_
*623 _0399_
*624 _0400_
*625 _0401_
*626 _0402_
*627 _0403_
*628 _0404_
*629 _0405_
*630 _0406_
*631 _0407_
*632 _0408_
*633 _0409_
*634 _0410_
*635 _0411_
*636 _0412_
*637 _0413_
*638 _0414_
*639 _0415_
*640 _0416_
*641 _0417_
*642 _0418_
*643 _0419_
*644 _0420_
*645 _0421_
*646 _0422_
*647 _0423_
*648 _0424_
*649 _0425_
*650 _0426_
*651 _0427_
*652 _0428_
*653 _0429_
*654 _0430_
*655 _0431_
*656 _0432_
*657 _0433_
*658 _0434_
*659 _0435_
*660 _0436_
*661 _0437_
*662 _0438_
*663 _0439_
*664 _0440_
*665 _0441_
*666 _0442_
*667 _0443_
*668 _0444_
*669 _0445_
*670 _0446_
*671 _0447_
*672 _0448_
*673 _0449_
*674 _0450_
*675 _0451_
*676 _0452_
*677 _0453_
*678 _0454_
*679 _0455_
*680 _0456_
*681 _0457_
*682 _0458_
*683 _0459_
*684 _0460_
*685 _0461_
*686 _0462_
*687 _0463_
*688 _0464_
*689 _0465_
*690 _0466_
*691 _0467_
*692 _0468_
*693 _0469_
*694 _0470_
*695 _0471_
*696 _0472_
*697 _0473_
*698 _0474_
*699 _0475_
*700 _0476_
*701 _0477_
*702 _0478_
*703 _0479_
*704 _0480_
*705 _0481_
*706 _0482_
*707 _0483_
*708 _0484_
*709 _0485_
*710 _0486_
*711 _0487_
*712 _0488_
*713 _0489_
*714 _0490_
*715 _0491_
*716 _0492_
*717 _0493_
*718 _0494_
*719 _0495_
*720 _0496_
*721 _0497_
*722 _0498_
*723 _0499_
*724 _0500_
*725 _0501_
*726 _0502_
*727 _0503_
*728 _0504_
*729 _0505_
*730 _0506_
*731 _0507_
*732 _0508_
*733 _0509_
*734 _0510_
*735 _0511_
*736 _0512_
*737 _0513_
*738 _0514_
*739 _0515_
*740 _0516_
*741 _0517_
*742 _0518_
*743 _0519_
*744 _0520_
*745 _0521_
*746 _0522_
*747 _0523_
*748 _0524_
*749 _0525_
*750 _0526_
*751 _0527_
*752 _0528_
*753 _0529_
*754 _0530_
*755 _0531_
*756 _0532_
*757 _0533_
*758 _0534_
*759 _0535_
*760 _0536_
*761 _0537_
*762 _0538_
*763 _0539_
*764 _0540_
*765 _0541_
*766 _0542_
*767 _0543_
*768 _0544_
*769 _0545_
*770 _0546_
*771 _0547_
*772 _0548_
*773 _0549_
*774 _0550_
*775 _0551_
*776 _0552_
*777 _0553_
*778 _0554_
*779 _0555_
*780 _0556_
*781 _0557_
*782 _0558_
*783 _0559_
*784 _0560_
*785 _0561_
*786 _0562_
*787 _0563_
*788 _0564_
*789 _0565_
*790 _0566_
*791 _0567_
*792 _0568_
*793 _0569_
*794 _0570_
*795 _0571_
*796 _0572_
*797 _0573_
*798 _0574_
*799 _0575_
*800 _0576_
*801 _0577_
*802 _0578_
*803 _0579_
*804 _0580_
*805 _0581_
*806 _0582_
*807 _0583_
*808 _0584_
*809 _0585_
*810 _0586_
*811 _0587_
*812 _0588_
*813 _0589_
*814 _0590_
*815 _0591_
*816 _0592_
*817 _0593_
*818 _0594_
*819 _0595_
*820 _0596_
*821 _0597_
*822 _0598_
*823 _0599_
*824 _0600_
*825 _0601_
*826 _0602_
*827 _0603_
*828 _0604_
*829 _0605_
*830 _0606_
*831 _0607_
*832 _0608_
*833 _0609_
*834 _0610_
*835 _0611_
*836 _0612_
*837 _0613_
*838 _0614_
*839 _0615_
*840 _0616_
*841 _0617_
*842 _0618_
*843 _0619_
*844 _0620_
*845 _0621_
*846 _0622_
*847 _0623_
*848 _0624_
*849 _0625_
*850 _0626_
*851 _0627_
*852 _0628_
*853 _0629_
*854 _0630_
*855 _0631_
*856 _0632_
*857 _0633_
*858 _0634_
*859 _0635_
*860 _0636_
*861 _0637_
*862 _0638_
*863 _0639_
*864 _0640_
*865 _0641_
*866 _0642_
*867 _0643_
*868 _0644_
*869 _0645_
*870 _0646_
*871 _0647_
*872 _0648_
*873 _0649_
*874 _0650_
*875 _0651_
*876 _0652_
*877 _0653_
*878 _0654_
*879 _0655_
*880 _0656_
*881 _0657_
*882 _0658_
*883 _0659_
*884 _0660_
*885 _0661_
*886 _0662_
*887 _0663_
*888 _0664_
*889 _0665_
*890 _0666_
*891 _0667_
*892 _0668_
*893 _0669_
*894 _0670_
*895 _0671_
*896 _0672_
*897 _0673_
*898 _0674_
*899 _0675_
*900 _0676_
*901 _0677_
*902 _0678_
*903 _0679_
*904 _0680_
*905 _0681_
*906 _0682_
*907 _0683_
*908 _0684_
*909 _0685_
*910 _0686_
*911 _0687_
*912 _0688_
*913 _0689_
*914 _0690_
*915 _0691_
*916 _0692_
*917 _0693_
*918 _0694_
*919 _0695_
*920 _0696_
*921 _0697_
*922 _0698_
*923 _0699_
*924 _0700_
*925 _0701_
*926 _0702_
*927 _0703_
*928 _0704_
*929 _0705_
*930 _0706_
*931 _0707_
*932 _0708_
*933 _0709_
*934 _0710_
*935 _0711_
*936 _0712_
*937 _0713_
*938 _0714_
*939 _0715_
*940 _0716_
*941 _0717_
*942 _0718_
*943 _0719_
*944 _0720_
*945 _0721_
*946 _0722_
*947 _0723_
*948 _0724_
*949 _0725_
*950 _0726_
*951 _0727_
*952 _0728_
*953 _0729_
*954 _0730_
*955 _0731_
*956 _0732_
*957 _0733_
*958 _0734_
*959 _0735_
*960 _0736_
*961 _0737_
*962 _0738_
*963 _0739_
*964 _0740_
*965 _0741_
*966 _0742_
*967 _0743_
*968 _0744_
*969 _0745_
*970 _0746_
*971 _0747_
*972 _0748_
*973 _0749_
*974 _0750_
*975 _0751_
*976 _0752_
*977 _0753_
*978 _0754_
*979 _0755_
*980 _0756_
*981 _0757_
*982 _0758_
*983 _0759_
*984 _0760_
*985 _0761_
*986 _0762_
*987 _0763_
*988 _0764_
*989 _0765_
*990 _0766_
*991 _0767_
*992 _0768_
*993 _0769_
*994 _0770_
*995 _0771_
*996 _0772_
*997 _0773_
*998 _0774_
*999 _0775_
*1000 _0776_
*1001 _0777_
*1002 _0778_
*1003 _0779_
*1004 _0780_
*1005 _0781_
*1006 _0782_
*1007 _0783_
*1008 _0784_
*1009 _0785_
*1010 _0786_
*1011 _0787_
*1012 _0788_
*1013 _0789_
*1014 _0790_
*1015 _0791_
*1016 _0792_
*1017 _0793_
*1018 _0794_
*1019 _0795_
*1020 _0796_
*1021 _0797_
*1022 _0798_
*1023 _0799_
*1024 _0800_
*1025 _0801_
*1026 _0802_
*1027 _0803_
*1028 _0804_
*1029 _0805_
*1030 _0806_
*1031 _0807_
*1032 _0808_
*1033 _0809_
*1034 _0810_
*1035 _0811_
*1036 _0812_
*1037 _0813_
*1038 _0814_
*1039 _0815_
*1040 _0816_
*1041 _0817_
*1042 _0818_
*1043 _0819_
*1044 _0820_
*1045 _0821_
*1046 _0822_
*1047 _0823_
*1048 _0824_
*1049 _0825_
*1050 _0826_
*1051 _0827_
*1052 _0828_
*1053 _0829_
*1054 _0830_
*1055 _0831_
*1056 _0832_
*1057 _0833_
*1058 _0834_
*1059 _0835_
*1060 _0836_
*1061 _0837_
*1062 _0838_
*1063 _0839_
*1064 _0840_
*1065 _0841_
*1066 _0842_
*1067 _0843_
*1068 _0844_
*1069 _0845_
*1070 _0846_
*1071 _0847_
*1072 _0848_
*1073 _0849_
*1074 _0850_
*1075 _0851_
*1076 _0852_
*1077 _0853_
*1078 _0854_
*1079 _0855_
*1080 _0856_
*1081 _0857_
*1082 _0858_
*1083 _0859_
*1084 _0860_
*1085 _0861_
*1086 _0862_
*1087 _0863_
*1088 _0864_
*1089 _0865_
*1090 _0866_
*1091 _0867_
*1092 _0868_
*1093 _0869_
*1094 _0870_
*1095 _0871_
*1096 _0872_
*1097 _0873_
*1098 _0874_
*1099 _0875_
*1100 _0876_
*1101 _0877_
*1102 _0878_
*1103 _0879_
*1104 _0880_
*1105 _0881_
*1106 _0882_
*1107 _0883_
*1108 _0884_
*1109 _0885_
*1110 _0886_
*1111 _0887_
*1112 _0888_
*1113 _0889_
*1114 _0890_
*1115 _0891_
*1116 _0892_
*1117 _0893_
*1118 _0894_
*1119 _0895_
*1120 _0896_
*1121 _0897_
*1122 _0898_
*1123 _0899_
*1124 _0900_
*1125 _0901_
*1126 _0902_
*1127 _0903_
*1128 _0904_
*1129 _0905_
*1130 _0906_
*1131 _0907_
*1132 _0908_
*1133 _0909_
*1134 _0910_
*1135 _0911_
*1136 _0912_
*1137 _0913_
*1138 _0914_
*1139 _0915_
*1140 _0916_
*1141 _0917_
*1142 _0918_
*1143 _0919_
*1144 _0920_
*1145 _0921_
*1146 _0922_
*1147 _0923_
*1148 _0924_
*1149 _0925_
*1150 _0926_
*1151 _0927_
*1152 _0928_
*1153 _0929_
*1154 _0930_
*1155 _0931_
*1156 _0932_
*1157 _0933_
*1158 _0934_
*1159 _0935_
*1160 _0936_
*1161 _0937_
*1162 _0938_
*1163 _0939_
*1164 _0940_
*1165 _0941_
*1166 _0942_
*1167 _0943_
*1168 _0944_
*1169 _0945_
*1170 _0946_
*1171 _0947_
*1172 _0948_
*1173 _0949_
*1174 _0950_
*1175 _0951_
*1176 _0952_
*1177 _0953_
*1178 _0954_
*1179 _0955_
*1180 _0956_
*1181 _0957_
*1182 _0958_
*1183 _0959_
*1184 _0960_
*1185 _0961_
*1186 _0962_
*1187 _0963_
*1188 _0964_
*1189 _0965_
*1190 _0966_
*1191 _0967_
*1192 _0968_
*1193 _0969_
*1194 _0970_
*1195 _0971_
*1196 _0972_
*1197 _0973_
*1198 _0974_
*1199 _0975_
*1200 _0976_
*1201 _0977_
*1202 _0978_
*1203 _0979_
*1204 _0980_
*1205 _0981_
*1206 _0982_
*1207 _0983_
*1208 _0984_
*1209 _0985_
*1210 _0986_
*1211 _0987_
*1212 _0988_
*1213 _0989_
*1214 _0990_
*1215 _0991_
*1216 _0992_
*1217 _0993_
*1218 _0994_
*1219 _0995_
*1220 _0996_
*1221 _0997_
*1222 _0998_
*1223 _0999_
*1224 _1000_
*1225 _1001_
*1226 _1002_
*1227 _1003_
*1228 _1004_
*1229 _1005_
*1230 _1006_
*1231 _1007_
*1232 _1008_
*1233 _1009_
*1234 _1010_
*1235 _1011_
*1236 _1012_
*1237 _1013_
*1238 _1014_
*1239 _1015_
*1240 _1016_
*1241 _1017_
*1242 _1018_
*1243 _1019_
*1244 _1020_
*1245 _1021_
*1246 _1022_
*1247 _1023_
*1248 _1024_
*1249 _1025_
*1250 _1026_
*1251 _1027_
*1252 _1028_
*1253 _1029_
*1254 _1030_
*1255 _1031_
*1256 _1032_
*1257 _1033_
*1258 _1034_
*1259 _1035_
*1260 _1036_
*1261 _1037_
*1262 _1038_
*1263 _1039_
*1264 _1040_
*1265 _1041_
*1266 _1042_
*1267 _1043_
*1268 _1044_
*1269 _1045_
*1270 _1046_
*1271 _1047_
*1272 _1048_
*1273 _1049_
*1274 _1050_
*1275 _1051_
*1276 _1052_
*1277 _1053_
*1278 _1054_
*1279 _1055_
*1280 _1056_
*1281 _1057_
*1282 _1058_
*1283 _1059_
*1284 _1060_
*1285 _1061_
*1286 _1062_
*1287 _1063_
*1288 _1064_
*1289 _1065_
*1290 _1066_
*1291 _1067_
*1292 _1068_
*1293 _1069_
*1294 _1070_
*1295 _1071_
*1296 _1072_
*1297 _1073_
*1298 _1074_
*1299 _1075_
*1300 _1076_
*1301 _1077_
*1302 _1078_
*1303 _1079_
*1304 _1080_
*1305 _1081_
*1306 _1082_
*1307 _1083_
*1308 _1084_
*1309 _1085_
*1310 _1086_
*1311 _1087_
*1312 _1088_
*1313 _1089_
*1314 _1090_
*1315 _1091_
*1316 _1092_
*1317 _1093_
*1318 _1094_
*1319 _1095_
*1320 _1096_
*1321 _1097_
*1322 _1098_
*1323 _1099_
*1324 _1100_
*1325 _1101_
*1326 _1102_
*1327 _1103_
*1328 _1104_
*1329 clknet_0_wb_clk_i
*1330 clknet_1_0_0_wb_clk_i
*1331 clknet_1_1_0_wb_clk_i
*1332 clknet_2_0_0_wb_clk_i
*1333 clknet_2_1_0_wb_clk_i
*1334 clknet_2_2_0_wb_clk_i
*1335 clknet_2_3_0_wb_clk_i
*1336 clknet_3_0_0_wb_clk_i
*1337 clknet_3_1_0_wb_clk_i
*1338 clknet_3_2_0_wb_clk_i
*1339 clknet_3_3_0_wb_clk_i
*1340 clknet_3_4_0_wb_clk_i
*1341 clknet_3_5_0_wb_clk_i
*1342 clknet_3_6_0_wb_clk_i
*1343 clknet_3_7_0_wb_clk_i
*1344 etpu\.c1\[0\]
*1345 etpu\.c1\[1\]
*1346 etpu\.c1\[2\]
*1347 etpu\.c1\[3\]
*1348 etpu\.c1\[4\]
*1349 etpu\.c1\[5\]
*1350 etpu\.c1\[6\]
*1351 etpu\.c1\[7\]
*1352 etpu\.c2\[0\]
*1353 etpu\.c2\[1\]
*1354 etpu\.c2\[2\]
*1355 etpu\.c2\[3\]
*1356 etpu\.c2\[4\]
*1357 etpu\.c2\[5\]
*1358 etpu\.c2\[6\]
*1359 etpu\.c2\[7\]
*1360 etpu\.c3\[0\]
*1361 etpu\.c3\[1\]
*1362 etpu\.c3\[2\]
*1363 etpu\.c3\[3\]
*1364 etpu\.c3\[4\]
*1365 etpu\.c3\[5\]
*1366 etpu\.c3\[6\]
*1367 etpu\.c3\[7\]
*1368 etpu\.caravel_wb_ack_o
*1369 etpu\.caravel_wb_dat_o\[0\]
*1370 etpu\.caravel_wb_dat_o\[10\]
*1371 etpu\.caravel_wb_dat_o\[11\]
*1372 etpu\.caravel_wb_dat_o\[12\]
*1373 etpu\.caravel_wb_dat_o\[13\]
*1374 etpu\.caravel_wb_dat_o\[14\]
*1375 etpu\.caravel_wb_dat_o\[15\]
*1376 etpu\.caravel_wb_dat_o\[16\]
*1377 etpu\.caravel_wb_dat_o\[17\]
*1378 etpu\.caravel_wb_dat_o\[18\]
*1379 etpu\.caravel_wb_dat_o\[19\]
*1380 etpu\.caravel_wb_dat_o\[1\]
*1381 etpu\.caravel_wb_dat_o\[20\]
*1382 etpu\.caravel_wb_dat_o\[21\]
*1383 etpu\.caravel_wb_dat_o\[22\]
*1384 etpu\.caravel_wb_dat_o\[23\]
*1385 etpu\.caravel_wb_dat_o\[24\]
*1386 etpu\.caravel_wb_dat_o\[25\]
*1387 etpu\.caravel_wb_dat_o\[26\]
*1388 etpu\.caravel_wb_dat_o\[27\]
*1389 etpu\.caravel_wb_dat_o\[28\]
*1390 etpu\.caravel_wb_dat_o\[29\]
*1391 etpu\.caravel_wb_dat_o\[2\]
*1392 etpu\.caravel_wb_dat_o\[30\]
*1393 etpu\.caravel_wb_dat_o\[31\]
*1394 etpu\.caravel_wb_dat_o\[3\]
*1395 etpu\.caravel_wb_dat_o\[4\]
*1396 etpu\.caravel_wb_dat_o\[5\]
*1397 etpu\.caravel_wb_dat_o\[6\]
*1398 etpu\.caravel_wb_dat_o\[7\]
*1399 etpu\.caravel_wb_dat_o\[8\]
*1400 etpu\.caravel_wb_dat_o\[9\]
*1401 etpu\.caravel_wb_rst2_i
*1402 etpu\.div\.clk_out
*1403 etpu\.div\.pos_count\[0\]
*1404 etpu\.div\.pos_count\[1\]
*1405 etpu\.div\.pos_count\[2\]
*1406 etpu\.div\.pos_count\[3\]
*1407 etpu\.div\.pos_count\[4\]
*1408 etpu\.div\.pos_count\[5\]
*1409 etpu\.div\.pos_count\[6\]
*1410 etpu\.i_count\[0\]
*1411 etpu\.i_count\[1\]
*1412 etpu\.i_count\[2\]
*1413 etpu\.i_count\[3\]
*1414 etpu\.o_data\[0\]
*1415 etpu\.o_data\[1\]
*1416 etpu\.o_data\[2\]
*1417 etpu\.o_data\[3\]
*1418 etpu\.o_data\[4\]
*1419 etpu\.ops\[0\]
*1420 etpu\.ops\[1\]
*1421 etpu\.ops\[2\]
*1422 etpu\.ops\[3\]
*1423 etpu\.ops_hidden\[0\]
*1424 etpu\.ops_hidden\[1\]
*1425 etpu\.ops_hidden\[2\]
*1426 etpu\.ops_hidden\[3\]
*1427 etpu\.ops_hidden\[4\]
*1428 etpu\.ops_hidden\[5\]
*1429 etpu\.result_o\[0\]
*1430 etpu\.result_o\[100\]
*1431 etpu\.result_o\[101\]
*1432 etpu\.result_o\[102\]
*1433 etpu\.result_o\[103\]
*1434 etpu\.result_o\[104\]
*1435 etpu\.result_o\[105\]
*1436 etpu\.result_o\[106\]
*1437 etpu\.result_o\[107\]
*1438 etpu\.result_o\[108\]
*1439 etpu\.result_o\[109\]
*1440 etpu\.result_o\[10\]
*1441 etpu\.result_o\[110\]
*1442 etpu\.result_o\[111\]
*1443 etpu\.result_o\[112\]
*1444 etpu\.result_o\[113\]
*1445 etpu\.result_o\[114\]
*1446 etpu\.result_o\[115\]
*1447 etpu\.result_o\[116\]
*1448 etpu\.result_o\[117\]
*1449 etpu\.result_o\[118\]
*1450 etpu\.result_o\[119\]
*1451 etpu\.result_o\[11\]
*1452 etpu\.result_o\[120\]
*1453 etpu\.result_o\[121\]
*1454 etpu\.result_o\[122\]
*1455 etpu\.result_o\[123\]
*1456 etpu\.result_o\[124\]
*1457 etpu\.result_o\[125\]
*1458 etpu\.result_o\[126\]
*1459 etpu\.result_o\[127\]
*1460 etpu\.result_o\[128\]
*1461 etpu\.result_o\[129\]
*1462 etpu\.result_o\[12\]
*1463 etpu\.result_o\[130\]
*1464 etpu\.result_o\[131\]
*1465 etpu\.result_o\[132\]
*1466 etpu\.result_o\[133\]
*1467 etpu\.result_o\[134\]
*1468 etpu\.result_o\[135\]
*1469 etpu\.result_o\[136\]
*1470 etpu\.result_o\[137\]
*1471 etpu\.result_o\[138\]
*1472 etpu\.result_o\[139\]
*1473 etpu\.result_o\[13\]
*1474 etpu\.result_o\[140\]
*1475 etpu\.result_o\[141\]
*1476 etpu\.result_o\[142\]
*1477 etpu\.result_o\[143\]
*1478 etpu\.result_o\[14\]
*1479 etpu\.result_o\[15\]
*1480 etpu\.result_o\[16\]
*1481 etpu\.result_o\[17\]
*1482 etpu\.result_o\[18\]
*1483 etpu\.result_o\[19\]
*1484 etpu\.result_o\[1\]
*1485 etpu\.result_o\[20\]
*1486 etpu\.result_o\[21\]
*1487 etpu\.result_o\[22\]
*1488 etpu\.result_o\[23\]
*1489 etpu\.result_o\[24\]
*1490 etpu\.result_o\[25\]
*1491 etpu\.result_o\[26\]
*1492 etpu\.result_o\[27\]
*1493 etpu\.result_o\[28\]
*1494 etpu\.result_o\[29\]
*1495 etpu\.result_o\[2\]
*1496 etpu\.result_o\[30\]
*1497 etpu\.result_o\[31\]
*1498 etpu\.result_o\[32\]
*1499 etpu\.result_o\[33\]
*1500 etpu\.result_o\[34\]
*1501 etpu\.result_o\[35\]
*1502 etpu\.result_o\[36\]
*1503 etpu\.result_o\[37\]
*1504 etpu\.result_o\[38\]
*1505 etpu\.result_o\[39\]
*1506 etpu\.result_o\[3\]
*1507 etpu\.result_o\[40\]
*1508 etpu\.result_o\[41\]
*1509 etpu\.result_o\[42\]
*1510 etpu\.result_o\[43\]
*1511 etpu\.result_o\[44\]
*1512 etpu\.result_o\[45\]
*1513 etpu\.result_o\[46\]
*1514 etpu\.result_o\[47\]
*1515 etpu\.result_o\[48\]
*1516 etpu\.result_o\[49\]
*1517 etpu\.result_o\[4\]
*1518 etpu\.result_o\[50\]
*1519 etpu\.result_o\[51\]
*1520 etpu\.result_o\[52\]
*1521 etpu\.result_o\[53\]
*1522 etpu\.result_o\[54\]
*1523 etpu\.result_o\[55\]
*1524 etpu\.result_o\[56\]
*1525 etpu\.result_o\[57\]
*1526 etpu\.result_o\[58\]
*1527 etpu\.result_o\[59\]
*1528 etpu\.result_o\[5\]
*1529 etpu\.result_o\[60\]
*1530 etpu\.result_o\[61\]
*1531 etpu\.result_o\[62\]
*1532 etpu\.result_o\[63\]
*1533 etpu\.result_o\[64\]
*1534 etpu\.result_o\[65\]
*1535 etpu\.result_o\[66\]
*1536 etpu\.result_o\[67\]
*1537 etpu\.result_o\[68\]
*1538 etpu\.result_o\[69\]
*1539 etpu\.result_o\[6\]
*1540 etpu\.result_o\[70\]
*1541 etpu\.result_o\[71\]
*1542 etpu\.result_o\[72\]
*1543 etpu\.result_o\[73\]
*1544 etpu\.result_o\[74\]
*1545 etpu\.result_o\[75\]
*1546 etpu\.result_o\[76\]
*1547 etpu\.result_o\[77\]
*1548 etpu\.result_o\[78\]
*1549 etpu\.result_o\[79\]
*1550 etpu\.result_o\[7\]
*1551 etpu\.result_o\[80\]
*1552 etpu\.result_o\[81\]
*1553 etpu\.result_o\[82\]
*1554 etpu\.result_o\[83\]
*1555 etpu\.result_o\[84\]
*1556 etpu\.result_o\[85\]
*1557 etpu\.result_o\[86\]
*1558 etpu\.result_o\[87\]
*1559 etpu\.result_o\[88\]
*1560 etpu\.result_o\[89\]
*1561 etpu\.result_o\[8\]
*1562 etpu\.result_o\[90\]
*1563 etpu\.result_o\[91\]
*1564 etpu\.result_o\[92\]
*1565 etpu\.result_o\[93\]
*1566 etpu\.result_o\[94\]
*1567 etpu\.result_o\[95\]
*1568 etpu\.result_o\[96\]
*1569 etpu\.result_o\[97\]
*1570 etpu\.result_o\[98\]
*1571 etpu\.result_o\[99\]
*1572 etpu\.result_o\[9\]
*1573 etpu\.state_input\[0\]
*1574 etpu\.state_input\[1\]
*1575 etpu\.state_input\[2\]
*1576 etpu\.state_input\[3\]
*1577 etpu\.state_tpu\[3\]
*1578 etpu\.w_count\[0\]
*1579 etpu\.w_count\[1\]
*1580 etpu\.w_count\[2\]
*1581 etpu\.w_count\[3\]
*1582 net1
*1583 net10
*1584 net100
*1585 net101
*1586 net102
*1587 net103
*1588 net104
*1589 net105
*1590 net106
*1591 net107
*1592 net108
*1593 net109
*1594 net11
*1595 net110
*1596 net111
*1597 net112
*1598 net113
*1599 net12
*1600 net13
*1601 net14
*1602 net15
*1603 net16
*1604 net17
*1605 net18
*1606 net19
*1607 net2
*1608 net20
*1609 net21
*1610 net22
*1611 net23
*1612 net24
*1613 net25
*1614 net26
*1615 net27
*1616 net28
*1617 net29
*1618 net3
*1619 net30
*1620 net31
*1621 net32
*1622 net33
*1623 net34
*1624 net35
*1625 net36
*1626 net37
*1627 net38
*1628 net39
*1629 net4
*1630 net40
*1631 net41
*1632 net42
*1633 net43
*1634 net44
*1635 net45
*1636 net46
*1637 net47
*1638 net48
*1639 net49
*1640 net5
*1641 net50
*1642 net51
*1643 net52
*1644 net53
*1645 net54
*1646 net55
*1647 net56
*1648 net57
*1649 net58
*1650 net59
*1651 net6
*1652 net60
*1653 net61
*1654 net62
*1655 net63
*1656 net64
*1657 net65
*1658 net66
*1659 net67
*1660 net68
*1661 net69
*1662 net7
*1663 net70
*1664 net71
*1665 net72
*1666 net73
*1667 net74
*1668 net75
*1669 net76
*1670 net77
*1671 net78
*1672 net79
*1673 net8
*1674 net80
*1675 net81
*1676 net82
*1677 net83
*1678 net84
*1679 net85
*1680 net86
*1681 net87
*1682 net88
*1683 net89
*1684 net9
*1685 net90
*1686 net91
*1687 net92
*1688 net93
*1689 net94
*1690 net95
*1691 net96
*1692 net97
*1693 net98
*1694 net99
*1695 ANTENNA_0
*1696 ANTENNA_1
*1697 ANTENNA_10
*1698 ANTENNA_11
*1699 ANTENNA_12
*1700 ANTENNA_13
*1701 ANTENNA_14
*1702 ANTENNA_2
*1703 ANTENNA_3
*1704 ANTENNA_4
*1705 ANTENNA_5
*1706 ANTENNA_6
*1707 ANTENNA_7
*1708 ANTENNA_8
*1709 ANTENNA_9
*1710 FILLER_0_109
*1711 FILLER_0_113
*1712 FILLER_0_125
*1713 FILLER_0_137
*1714 FILLER_0_141
*1715 FILLER_0_153
*1716 FILLER_0_165
*1717 FILLER_0_169
*1718 FILLER_0_177
*1719 FILLER_0_182
*1720 FILLER_0_194
*1721 FILLER_0_197
*1722 FILLER_0_202
*1723 FILLER_0_214
*1724 FILLER_0_222
*1725 FILLER_0_225
*1726 FILLER_0_235
*1727 FILLER_0_24
*1728 FILLER_0_242
*1729 FILLER_0_250
*1730 FILLER_0_253
*1731 FILLER_0_265
*1732 FILLER_0_277
*1733 FILLER_0_281
*1734 FILLER_0_293
*1735 FILLER_0_301
*1736 FILLER_0_307
*1737 FILLER_0_309
*1738 FILLER_0_321
*1739 FILLER_0_33
*1740 FILLER_0_333
*1741 FILLER_0_337
*1742 FILLER_0_342
*1743 FILLER_0_354
*1744 FILLER_0_362
*1745 FILLER_0_365
*1746 FILLER_0_377
*1747 FILLER_0_389
*1748 FILLER_0_393
*1749 FILLER_0_401
*1750 FILLER_0_407
*1751 FILLER_0_419
*1752 FILLER_0_421
*1753 FILLER_0_433
*1754 FILLER_0_445
*1755 FILLER_0_449
*1756 FILLER_0_45
*1757 FILLER_0_459
*1758 FILLER_0_471
*1759 FILLER_0_475
*1760 FILLER_0_480
*1761 FILLER_0_492
*1762 FILLER_0_505
*1763 FILLER_0_517
*1764 FILLER_0_529
*1765 FILLER_0_53
*1766 FILLER_0_533
*1767 FILLER_0_545
*1768 FILLER_0_557
*1769 FILLER_0_561
*1770 FILLER_0_57
*1771 FILLER_0_573
*1772 FILLER_0_585
*1773 FILLER_0_589
*1774 FILLER_0_597
*1775 FILLER_0_604
*1776 FILLER_0_617
*1777 FILLER_0_62
*1778 FILLER_0_629
*1779 FILLER_0_641
*1780 FILLER_0_645
*1781 FILLER_0_651
*1782 FILLER_0_666
*1783 FILLER_0_673
*1784 FILLER_0_685
*1785 FILLER_0_697
*1786 FILLER_0_707
*1787 FILLER_0_715
*1788 FILLER_0_724
*1789 FILLER_0_729
*1790 FILLER_0_74
*1791 FILLER_0_82
*1792 FILLER_0_85
*1793 FILLER_0_97
*1794 FILLER_100_109
*1795 FILLER_100_121
*1796 FILLER_100_133
*1797 FILLER_100_139
*1798 FILLER_100_141
*1799 FILLER_100_169
*1800 FILLER_100_185
*1801 FILLER_100_19
*1802 FILLER_100_192
*1803 FILLER_100_202
*1804 FILLER_100_214
*1805 FILLER_100_222
*1806 FILLER_100_227
*1807 FILLER_100_236
*1808 FILLER_100_244
*1809 FILLER_100_248
*1810 FILLER_100_258
*1811 FILLER_100_264
*1812 FILLER_100_27
*1813 FILLER_100_273
*1814 FILLER_100_29
*1815 FILLER_100_293
*1816 FILLER_100_305
*1817 FILLER_100_309
*1818 FILLER_100_313
*1819 FILLER_100_321
*1820 FILLER_100_340
*1821 FILLER_100_360
*1822 FILLER_100_365
*1823 FILLER_100_369
*1824 FILLER_100_386
*1825 FILLER_100_398
*1826 FILLER_100_41
*1827 FILLER_100_410
*1828 FILLER_100_418
*1829 FILLER_100_421
*1830 FILLER_100_433
*1831 FILLER_100_445
*1832 FILLER_100_457
*1833 FILLER_100_469
*1834 FILLER_100_475
*1835 FILLER_100_477
*1836 FILLER_100_489
*1837 FILLER_100_501
*1838 FILLER_100_513
*1839 FILLER_100_525
*1840 FILLER_100_53
*1841 FILLER_100_531
*1842 FILLER_100_533
*1843 FILLER_100_545
*1844 FILLER_100_557
*1845 FILLER_100_569
*1846 FILLER_100_581
*1847 FILLER_100_587
*1848 FILLER_100_589
*1849 FILLER_100_601
*1850 FILLER_100_613
*1851 FILLER_100_625
*1852 FILLER_100_637
*1853 FILLER_100_643
*1854 FILLER_100_645
*1855 FILLER_100_65
*1856 FILLER_100_657
*1857 FILLER_100_669
*1858 FILLER_100_681
*1859 FILLER_100_693
*1860 FILLER_100_699
*1861 FILLER_100_7
*1862 FILLER_100_701
*1863 FILLER_100_713
*1864 FILLER_100_717
*1865 FILLER_100_721
*1866 FILLER_100_729
*1867 FILLER_100_77
*1868 FILLER_100_83
*1869 FILLER_100_85
*1870 FILLER_100_97
*1871 FILLER_101_105
*1872 FILLER_101_111
*1873 FILLER_101_113
*1874 FILLER_101_125
*1875 FILLER_101_137
*1876 FILLER_101_149
*1877 FILLER_101_15
*1878 FILLER_101_161
*1879 FILLER_101_167
*1880 FILLER_101_169
*1881 FILLER_101_181
*1882 FILLER_101_199
*1883 FILLER_101_211
*1884 FILLER_101_215
*1885 FILLER_101_220
*1886 FILLER_101_241
*1887 FILLER_101_261
*1888 FILLER_101_27
*1889 FILLER_101_275
*1890 FILLER_101_279
*1891 FILLER_101_281
*1892 FILLER_101_289
*1893 FILLER_101_3
*1894 FILLER_101_300
*1895 FILLER_101_308
*1896 FILLER_101_332
*1897 FILLER_101_337
*1898 FILLER_101_349
*1899 FILLER_101_355
*1900 FILLER_101_367
*1901 FILLER_101_374
*1902 FILLER_101_381
*1903 FILLER_101_389
*1904 FILLER_101_39
*1905 FILLER_101_393
*1906 FILLER_101_405