*SPEF "ieee 1481-1999"
*DESIGN "wrapped_etpu"
*DATE "11:11:11 Fri 11 11, 1111"
*VENDOR "OpenRCX"
*PROGRAM "Parallel Extraction"
*VERSION "1.0"
*DESIGN_FLOW "NAME_SCOPE LOCAL" "PIN_CAP NONE"
*DIVIDER /
*DELIMITER :
*BUS_DELIMITER []
*T_UNIT 1 NS
*C_UNIT 1 PF
*R_UNIT 1 OHM
*L_UNIT 1 HENRY

*NAME_MAP
*1 active
*2 io_in[0]
*3 io_in[10]
*4 io_in[11]
*5 io_in[12]
*6 io_in[13]
*7 io_in[14]
*8 io_in[15]
*9 io_in[16]
*10 io_in[17]
*11 io_in[18]
*12 io_in[19]
*13 io_in[1]
*14 io_in[20]
*15 io_in[21]
*16 io_in[22]
*17 io_in[23]
*18 io_in[24]
*19 io_in[25]
*20 io_in[26]
*21 io_in[27]
*22 io_in[28]
*23 io_in[29]
*24 io_in[2]
*25 io_in[30]
*26 io_in[31]
*27 io_in[32]
*28 io_in[33]
*29 io_in[34]
*30 io_in[35]
*31 io_in[36]
*32 io_in[37]
*33 io_in[3]
*34 io_in[4]
*35 io_in[5]
*36 io_in[6]
*37 io_in[7]
*38 io_in[8]
*39 io_in[9]
*40 io_oeb[0]
*41 io_oeb[10]
*42 io_oeb[11]
*43 io_oeb[12]
*44 io_oeb[13]
*45 io_oeb[14]
*46 io_oeb[15]
*47 io_oeb[16]
*48 io_oeb[17]
*49 io_oeb[18]
*50 io_oeb[19]
*51 io_oeb[1]
*52 io_oeb[20]
*53 io_oeb[21]
*54 io_oeb[22]
*55 io_oeb[23]
*56 io_oeb[24]
*57 io_oeb[25]
*58 io_oeb[26]
*59 io_oeb[27]
*60 io_oeb[28]
*61 io_oeb[29]
*62 io_oeb[2]
*63 io_oeb[30]
*64 io_oeb[31]
*65 io_oeb[32]
*66 io_oeb[33]
*67 io_oeb[34]
*68 io_oeb[35]
*69 io_oeb[36]
*70 io_oeb[37]
*71 io_oeb[3]
*72 io_oeb[4]
*73 io_oeb[5]
*74 io_oeb[6]
*75 io_oeb[7]
*76 io_oeb[8]
*77 io_oeb[9]
*78 io_out[0]
*79 io_out[10]
*80 io_out[11]
*81 io_out[12]
*82 io_out[13]
*83 io_out[14]
*84 io_out[15]
*85 io_out[16]
*86 io_out[17]
*87 io_out[18]
*88 io_out[19]
*89 io_out[1]
*90 io_out[20]
*91 io_out[21]
*92 io_out[22]
*93 io_out[23]
*94 io_out[24]
*95 io_out[25]
*96 io_out[26]
*97 io_out[27]
*98 io_out[28]
*99 io_out[29]
*100 io_out[2]
*101 io_out[30]
*102 io_out[31]
*103 io_out[32]
*104 io_out[33]
*105 io_out[34]
*106 io_out[35]
*107 io_out[36]
*108 io_out[37]
*109 io_out[3]
*110 io_out[4]
*111 io_out[5]
*112 io_out[6]
*113 io_out[7]
*114 io_out[8]
*115 io_out[9]
*118 wb_clk_i
*119 wb_rst_i
*120 wbs_ack_o
*121 wbs_adr_i[0]
*122 wbs_adr_i[10]
*123 wbs_adr_i[11]
*124 wbs_adr_i[12]
*125 wbs_adr_i[13]
*126 wbs_adr_i[14]
*127 wbs_adr_i[15]
*128 wbs_adr_i[16]
*129 wbs_adr_i[17]
*130 wbs_adr_i[18]
*131 wbs_adr_i[19]
*132 wbs_adr_i[1]
*133 wbs_adr_i[20]
*134 wbs_adr_i[21]
*135 wbs_adr_i[22]
*136 wbs_adr_i[23]
*137 wbs_adr_i[24]
*138 wbs_adr_i[25]
*139 wbs_adr_i[26]
*140 wbs_adr_i[27]
*141 wbs_adr_i[28]
*142 wbs_adr_i[29]
*143 wbs_adr_i[2]
*144 wbs_adr_i[30]
*145 wbs_adr_i[31]
*146 wbs_adr_i[3]
*147 wbs_adr_i[4]
*148 wbs_adr_i[5]
*149 wbs_adr_i[6]
*150 wbs_adr_i[7]
*151 wbs_adr_i[8]
*152 wbs_adr_i[9]
*153 wbs_cyc_i
*154 wbs_dat_i[0]
*155 wbs_dat_i[10]
*156 wbs_dat_i[11]
*157 wbs_dat_i[12]
*158 wbs_dat_i[13]
*159 wbs_dat_i[14]
*160 wbs_dat_i[15]
*161 wbs_dat_i[16]
*162 wbs_dat_i[17]
*163 wbs_dat_i[18]
*164 wbs_dat_i[19]
*165 wbs_dat_i[1]
*166 wbs_dat_i[20]
*167 wbs_dat_i[21]
*168 wbs_dat_i[22]
*169 wbs_dat_i[23]
*170 wbs_dat_i[24]
*171 wbs_dat_i[25]
*172 wbs_dat_i[26]
*173 wbs_dat_i[27]
*174 wbs_dat_i[28]
*175 wbs_dat_i[29]
*176 wbs_dat_i[2]
*177 wbs_dat_i[30]
*178 wbs_dat_i[31]
*179 wbs_dat_i[3]
*180 wbs_dat_i[4]
*181 wbs_dat_i[5]
*182 wbs_dat_i[6]
*183 wbs_dat_i[7]
*184 wbs_dat_i[8]
*185 wbs_dat_i[9]
*186 wbs_dat_o[0]
*187 wbs_dat_o[10]
*188 wbs_dat_o[11]
*189 wbs_dat_o[12]
*190 wbs_dat_o[13]
*191 wbs_dat_o[14]
*192 wbs_dat_o[15]
*193 wbs_dat_o[16]
*194 wbs_dat_o[17]
*195 wbs_dat_o[18]
*196 wbs_dat_o[19]
*197 wbs_dat_o[1]
*198 wbs_dat_o[20]
*199 wbs_dat_o[21]
*200 wbs_dat_o[22]
*201 wbs_dat_o[23]
*202 wbs_dat_o[24]
*203 wbs_dat_o[25]
*204 wbs_dat_o[26]
*205 wbs_dat_o[27]
*206 wbs_dat_o[28]
*207 wbs_dat_o[29]
*208 wbs_dat_o[2]
*209 wbs_dat_o[30]
*210 wbs_dat_o[31]
*211 wbs_dat_o[3]
*212 wbs_dat_o[4]
*213 wbs_dat_o[5]
*214 wbs_dat_o[6]
*215 wbs_dat_o[7]
*216 wbs_dat_o[8]
*217 wbs_dat_o[9]
*218 wbs_sel_i[0]
*219 wbs_sel_i[1]
*220 wbs_sel_i[2]
*221 wbs_sel_i[3]
*222 wbs_stb_i
*223 wbs_we_i
*224 _000_
*225 _001_
*226 _002_
*227 _003_
*228 _004_
*229 _005_
*230 _006_
*231 _007_
*232 _008_
*233 _009_
*234 _010_
*235 _011_
*236 _012_
*237 _013_
*238 _014_
*239 _015_
*240 _016_
*241 _017_
*242 _018_
*243 _019_
*244 _020_
*245 _021_
*246 _022_
*247 _023_
*248 _024_
*249 _025_
*250 _026_
*251 _027_
*252 _028_
*253 _029_
*254 _030_
*255 _031_
*256 _032_
*257 _033_
*258 _034_
*259 _035_
*260 _036_
*261 _037_
*262 _038_
*263 _039_
*264 _040_
*265 _041_
*266 _042_
*267 _043_
*268 _044_
*269 _045_
*270 _046_
*271 _047_
*272 _048_
*273 _049_
*274 _050_
*275 _051_
*276 _052_
*277 _053_
*278 _054_
*279 _055_
*280 _056_
*281 _057_
*282 _058_
*283 _059_
*284 _060_
*285 _061_
*286 _062_
*287 _063_
*288 _064_
*289 _065_
*290 _066_
*291 _067_
*292 _068_
*293 _069_
*294 _070_
*295 _071_
*296 _072_
*297 _073_
*298 _074_
*299 _075_
*300 _076_
*301 _077_
*302 _078_
*303 _079_
*304 _080_
*305 _081_
*306 _082_
*307 _083_
*308 _084_
*309 _085_
*310 _086_
*311 _087_
*312 _088_
*313 _089_
*314 _090_
*315 _091_
*316 _092_
*317 _093_
*318 _094_
*319 _095_
*320 _096_
*321 _097_
*322 _098_
*323 _099_
*324 _100_
*325 _101_
*326 _102_
*327 _103_
*328 _104_
*329 _105_
*330 _106_
*331 _107_
*332 _108_
*333 _109_
*334 _110_
*335 _111_
*336 _112_
*337 _113_
*338 _114_
*339 _115_
*340 _116_
*341 _117_
*342 _118_
*343 _119_
*344 _120_
*345 _121_
*346 _122_
*347 _123_
*348 _124_
*349 _125_
*350 _126_
*351 _127_
*352 _128_
*353 _129_
*354 _130_
*355 _131_
*356 _132_
*357 _133_
*358 _134_
*359 _135_
*360 _136_
*361 _137_
*362 _138_
*363 _139_
*364 _140_
*365 _141_
*366 _142_
*367 _143_
*368 _144_
*369 _145_
*370 _146_
*371 etpu\.caravel_wb_ack_o
*372 net1
*373 net10
*374 net100
*375 net101
*376 net102
*377 net103
*378 net104
*379 net105
*380 net106
*381 net107
*382 net108
*383 net109
*384 net11
*385 net110
*386 net111
*387 net112
*388 net113
*389 net114
*390 net115
*391 net116
*392 net117
*393 net118
*394 net119
*395 net12
*396 net120
*397 net121
*398 net122
*399 net123
*400 net124
*401 net125
*402 net126
*403 net127
*404 net128
*405 net129
*406 net13
*407 net130
*408 net131
*409 net132
*410 net133
*411 net134
*412 net135
*413 net136
*414 net137
*415 net138
*416 net139
*417 net14
*418 net140
*419 net141
*420 net142
*421 net15
*422 net16
*423 net17
*424 net18
*425 net19
*426 net2
*427 net20
*428 net21
*429 net22
*430 net23
*431 net24
*432 net25
*433 net26
*434 net27
*435 net28
*436 net29
*437 net3
*438 net30
*439 net31
*440 net32
*441 net33
*442 net34
*443 net35
*444 net36
*445 net37
*446 net38
*447 net39
*448 net4
*449 net40
*450 net41
*451 net42
*452 net43
*453 net44
*454 net45
*455 net46
*456 net47
*457 net48
*458 net49
*459 net5
*460 net50
*461 net51
*462 net52
*463 net53
*464 net54
*465 net55
*466 net56
*467 net57
*468 net58
*469 net59
*470 net6
*471 net60
*472 net61
*473 net62
*474 net63
*475 net64
*476 net65
*477 net66
*478 net67
*479 net68
*480 net69
*481 net7
*482 net70
*483 net71
*484 net72
*485 net73
*486 net74
*487 net75
*488 net76
*489 net77
*490 net78
*491 net79
*492 net8
*493 net80
*494 net81
*495 net82
*496 net83
*497 net84
*498 net85
*499 net86
*500 net87
*501 net88
*502 net89
*503 net9
*504 net90
*505 net91
*506 net92
*507 net93
*508 net94
*509 net95
*510 net96
*511 net97
*512 net98
*513 net99
*514 ANTENNA_0
*515 ANTENNA_1
*516 ANTENNA_2
*517 ANTENNA_3
*518 ANTENNA_4
*519 ANTENNA_5
*520 ANTENNA_6
*521 ANTENNA_7
*522 ANTENNA_8
*523 FILLER_0_109
*524 FILLER_0_113
*525 FILLER_0_125
*526 FILLER_0_137
*527 FILLER_0_141
*528 FILLER_0_15
*529 FILLER_0_153
*530 FILLER_0_165
*531 FILLER_0_169
*532 FILLER_0_177
*533 FILLER_0_182
*534 FILLER_0_194
*535 FILLER_0_197
*536 FILLER_0_209
*537 FILLER_0_221
*538 FILLER_0_225
*539 FILLER_0_233
*540 FILLER_0_245
*541 FILLER_0_251
*542 FILLER_0_253
*543 FILLER_0_265
*544 FILLER_0_27
*545 FILLER_0_277
*546 FILLER_0_281
*547 FILLER_0_287
*548 FILLER_0_29
*549 FILLER_0_295
*550 FILLER_0_3
*551 FILLER_0_301
*552 FILLER_0_307
*553 FILLER_0_309
*554 FILLER_0_321
*555 FILLER_0_333
*556 FILLER_0_337
*557 FILLER_0_345
*558 FILLER_0_357
*559 FILLER_0_363
*560 FILLER_0_365
*561 FILLER_0_377
*562 FILLER_0_389
*563 FILLER_0_39
*564 FILLER_0_393
*565 FILLER_0_405
*566 FILLER_0_417
*567 FILLER_0_421
*568 FILLER_0_433
*569 FILLER_0_445
*570 FILLER_0_449
*571 FILLER_0_459
*572 FILLER_0_471
*573 FILLER_0_475
*574 FILLER_0_477
*575 FILLER_0_489
*576 FILLER_0_501
*577 FILLER_0_505
*578 FILLER_0_51
*579 FILLER_0_517
*580 FILLER_0_529
*581 FILLER_0_533
*582 FILLER_0_545
*583 FILLER_0_55
*584 FILLER_0_557
*585 FILLER_0_561
*586 FILLER_0_57
*587 FILLER_0_573
*588 FILLER_0_585
*589 FILLER_0_589
*590 FILLER_0_597
*591 FILLER_0_604
*592 FILLER_0_617
*593 FILLER_0_629
*594 FILLER_0_641
*595 FILLER_0_645
*596 FILLER_0_657
*597 FILLER_0_669
*598 FILLER_0_673
*599 FILLER_0_685
*600 FILLER_0_69
*601 FILLER_0_697
*602 FILLER_0_707
*603 FILLER_0_715
*604 FILLER_0_724
*605 FILLER_0_729
*606 FILLER_0_81
*607 FILLER_0_85
*608 FILLER_0_97
*609 FILLER_100_109
*610 FILLER_100_121
*611 FILLER_100_133
*612 FILLER_100_139
*613 FILLER_100_141
*614 FILLER_100_153
*615 FILLER_100_165
*616 FILLER_100_177
*617 FILLER_100_189
*618 FILLER_100_19
*619 FILLER_100_195
*620 FILLER_100_197
*621 FILLER_100_209
*622 FILLER_100_221
*623 FILLER_100_233
*624 FILLER_100_245
*625 FILLER_100_251
*626 FILLER_100_253
*627 FILLER_100_265
*628 FILLER_100_27
*629 FILLER_100_277
*630 FILLER_100_289
*631 FILLER_100_29
*632 FILLER_100_301
*633 FILLER_100_307
*634 FILLER_100_309
*635 FILLER_100_321
*636 FILLER_100_333
*637 FILLER_100_345
*638 FILLER_100_357
*639 FILLER_100_363
*640 FILLER_100_365
*641 FILLER_100_377
*642 FILLER_100_389
*643 FILLER_100_401
*644 FILLER_100_41
*645 FILLER_100_413
*646 FILLER_100_419
*647 FILLER_100_421
*648 FILLER_100_433
*649 FILLER_100_445
*650 FILLER_100_457
*651 FILLER_100_463
*652 FILLER_100_475
*653 FILLER_100_477
*654 FILLER_100_489
*655 FILLER_100_501
*656 FILLER_100_513
*657 FILLER_100_525
*658 FILLER_100_53
*659 FILLER_100_531
*660 FILLER_100_533
*661 FILLER_100_545
*662 FILLER_100_557
*663 FILLER_100_569
*664 FILLER_100_581
*665 FILLER_100_587
*666 FILLER_100_589
*667 FILLER_100_601
*668 FILLER_100_605
*669 FILLER_100_609
*670 FILLER_100_621
*671 FILLER_100_633
*672 FILLER_100_641
*673 FILLER_100_645
*674 FILLER_100_65
*675 FILLER_100_657
*676 FILLER_100_669
*677 FILLER_100_681
*678 FILLER_100_693
*679 FILLER_100_699
*680 FILLER_100_7
*681 FILLER_100_701
*682 FILLER_100_713
*683 FILLER_100_721
*684 FILLER_100_729
*685 FILLER_100_77
*686 FILLER_100_83
*687 FILLER_100_85
*688 FILLER_100_97
*689 FILLER_101_105
*690 FILLER_101_111
*691 FILLER_101_113
*692 FILLER_101_125
*693 FILLER_101_137
*694 FILLER_101_149
*695 FILLER_101_15
*696 FILLER_101_161
*697 FILLER_101_167
*698 FILLER_101_169
*699 FILLER_101_181
*700 FILLER_101_193
*701 FILLER_101_205
*702 FILLER_101_217
*703 FILLER_101_223
*704 FILLER_101_225
*705 FILLER_101_237
*706 FILLER_101_249
*707 FILLER_101_261
*708 FILLER_101_27
*709 FILLER_101_273
*710 FILLER_101_279
*711 FILLER_101_281
*712 FILLER_101_293
*713 FILLER_101_3
*714 FILLER_101_305
*715 FILLER_101_317
*716 FILLER_101_329
*717 FILLER_101_335
*718 FILLER_101_337
*719 FILLER_101_349
*720 FILLER_101_361
*721 FILLER_101_373
*722 FILLER_101_385
*723 FILLER_101_39
*724 FILLER_101_391
*725 FILLER_101_393
*726 FILLER_101_405
*727 FILLER_101_417
*728 FILLER_101_429
*729 FILLER_101_441
*730 FILLER_101_447
*731 FILLER_101_449
*732 FILLER_101_482
*733 FILLER_101_494
*734 FILLER_101_502
*735 FILLER_101_505
*736 FILLER_101_51
*737 FILLER_101_517
*738 FILLER_101_529
*739 FILLER_101_541
*740 FILLER_101_55
*741 FILLER_101_553
*742 FILLER_101_559
*743 FILLER_101_561
*744 FILLER_101_57
*745 FILLER_101_573
*746 FILLER_101_581
*747 FILLER_101_587
*748 FILLER_101_612
*749 FILLER_101_617
*750 FILLER_101_629
*751 FILLER_101_641
*752 FILLER_101_653
*753 FILLER_101_665
*754 FILLER_101_671
*755 FILLER_101_673
*756 FILLER_101_685
*757 FILLER_101_69
*758 FILLER_101_697
*759 FILLER_101_709
*760 FILLER_101_721
*761 FILLER_101_727
*762 FILLER_101_729
*763 FILLER_101_81
*764 FILLER_101_93
*765 FILLER_102_109
*766 FILLER_102_121
*767 FILLER_102_133
*768 FILLER_102_139
*769 FILLER_102_141
*770 FILLER_102_15
*771 FILLER_102_153
*772 FILLER_102_165
*773 FILLER_102_177
*774 FILLER_102_189
*775 FILLER_102_195
*776 FILLER_102_197
*777 FILLER_102_209
*778 FILLER_102_221
*779 FILLER_102_233
*780 FILLER_102_245
*781 FILLER_102_251
*782 FILLER_102_253
*783 FILLER_102_265
*784 FILLER_102_27
*785 FILLER_102_277
*786 FILLER_102_289
*787 FILLER_102_29
*788 FILLER_102_3
*789 FILLER_102_301
*790 FILLER_102_307
*791 FILLER_102_309
*792 FILLER_102_321
*793 FILLER_102_333
*794 FILLER_102_345
*795 FILLER_102_357
*796 FILLER_102_363
*797 FILLER_102_365
*798 FILLER_102_377
*799 FILLER_102_389
*800 FILLER_102_401
*801 FILLER_102_41
*802 FILLER_102_413
*803 FILLER_102_419
*804 FILLER_102_421
*805 FILLER_102_433
*806 FILLER_102_445
*807 FILLER_102_457
*808 FILLER_102_469
*809 FILLER_102_475
*810 FILLER_102_477
*811 FILLER_102_489
*812 FILLER_102_501
*813 FILLER_102_513
*814 FILLER_102_525
*815 FILLER_102_53
*816 FILLER_102_531
*817 FILLER_102_533
*818 FILLER_102_545
*819 FILLER_102_557
*820 FILLER_102_569
*821 FILLER_102_581
*822 FILLER_102_587
*823 FILLER_102_589
*824 FILLER_102_596
*825 FILLER_102_608
*826 FILLER_102_620
*827 FILLER_102_632
*828 FILLER_102_645
*829 FILLER_102_65
*830 FILLER_102_657
*831 FILLER_102_669
*832 FILLER_102_681
*833 FILLER_102_693
*834 FILLER_102_699
*835 FILLER_102_701
*836 FILLER_102_713
*837 FILLER_102_725
*838 FILLER_102_77
*839 FILLER_102_83
*840 FILLER_102_85
*841 FILLER_102_97
*842 FILLER_103_105
*843 FILLER_103_111
*844 FILLER_103_113
*845 FILLER_103_125
*846 FILLER_103_137
*847 FILLER_103_149
*848 FILLER_103_15
*849 FILLER_103_161
*850 FILLER_103_167
*851 FILLER_103_169
*852 FILLER_103_181
*853 FILLER_103_193
*854 FILLER_103_205
*855 FILLER_103_217
*856 FILLER_103_223
*857 FILLER_103_225
*858 FILLER_103_237
*859 FILLER_103_249
*860 FILLER_103_261
*861 FILLER_103_27
*862 FILLER_103_273
*863 FILLER_103_279
*864 FILLER_103_281
*865 FILLER_103_293
*866 FILLER_103_3
*867 FILLER_103_305
*868 FILLER_103_317
*869 FILLER_103_329
*870 FILLER_103_335
*871 FILLER_103_337
*872 FILLER_103_349
*873 FILLER_103_361
*874 FILLER_103_373
*875 FILLER_103_385
*876 FILLER_103_39
*877 FILLER_103_391
*878 FILLER_103_393
*879 FILLER_103_405
*880 FILLER_103_417
*881 FILLER_103_429
*882 FILLER_103_441
*883 FILLER_103_447
*884 FILLER_103_449
*885 FILLER_103_461
*886 FILLER_103_465
*887 FILLER_103_477
*888 FILLER_103_489
*889 FILLER_103_501
*890 FILLER_103_505
*891 FILLER_103_51
*892 FILLER_103_517
*893 FILLER_103_529
*894 FILLER_103_533
*895 FILLER_103_545
*896 FILLER_103_55
*897 FILLER_103_557
*898 FILLER_103_561
*899 FILLER_103_57
*900 FILLER_103_573
*901 FILLER_103_585
*902 FILLER_103_597
*903 FILLER_103_601
*904 FILLER_103_605
*905 FILLER_103_613
*906 FILLER_103_617
*907 FILLER_103_629
*908 FILLER_103_641
*909 FILLER_103_653
*910 FILLER_103_665
*911 FILLER_103_671
*912 FILLER_103_673
*913 FILLER_103_685
*914 FILLER_103_69
*915 FILLER_103_697
*916 FILLER_103_709
*917 FILLER_103_721
*918 FILLER_103_727
*919 FILLER_103_729
*920 FILLER_103_81
*921 FILLER_103_93
*922 FILLER_104_100
*923 FILLER_104_125
*924 FILLER_104_137
*925 FILLER_104_141
*926 FILLER_104_15
*927 FILLER_104_153
*928 FILLER_104_165
*929 FILLER_104_177
*930 FILLER_104_189
*931 FILLER_104_195
*932 FILLER_104_197
*933 FILLER_104_209
*934 FILLER_104_221
*935 FILLER_104_233
*936 FILLER_104_245
*937 FILLER_104_251
*938 FILLER_104_253
*939 FILLER_104_265
*940 FILLER_104_27
*941 FILLER_104_277
*942 FILLER_104_289
*943 FILLER_104_29
*944 FILLER_104_297
*945 FILLER_104_3
*946 FILLER_104_301
*947 FILLER_104_307
*948 FILLER_104_309
*949 FILLER_104_321
*950 FILLER_104_333
*951 FILLER_104_345
*952 FILLER_104_357
*953 FILLER_104_363
*954 FILLER_104_365
*955 FILLER_104_377
*956 FILLER_104_389
*957 FILLER_104_401
*958 FILLER_104_41
*959 FILLER_104_413
*960 FILLER_104_419
*961 FILLER_104_421
*962 FILLER_104_433
*963 FILLER_104_445
*964 FILLER_104_457
*965 FILLER_104_469
*966 FILLER_104_475
*967 FILLER_104_477
*968 FILLER_104_489
*969 FILLER_104_501
*970 FILLER_104_513
*971 FILLER_104_528
*972 FILLER_104_53
*973 FILLER_104_554
*974 FILLER_104_566
*975 FILLER_104_578
*976 FILLER_104_586
*977 FILLER_104_589
*978 FILLER_104_601
*979 FILLER_104_624
*980 FILLER_104_636
*981 FILLER_104_645
*982 FILLER_104_65
*983 FILLER_104_657
*984 FILLER_104_669
*985 FILLER_104_681
*986 FILLER_104_693
*987 FILLER_104_699
*988 FILLER_104_701
*989 FILLER_104_713
*990 FILLER_104_725
*991 FILLER_104_77
*992 FILLER_104_83
*993 FILLER_104_85
*994 FILLER_105_108
*995 FILLER_105_113
*996 FILLER_105_125
*997 FILLER_105_137
*998 FILLER_105_149
*999 FILLER_105_15
*1000 FILLER_105_161
*1001 FILLER_105_167
*1002 FILLER_105_169
*1003 FILLER_105_181
*1004 FILLER_105_193
*1005 FILLER_105_205
*1006 FILLER_105_217
*1007 FILLER_105_223
*1008 FILLER_105_225
*1009 FILLER_105_237
*1010 FILLER_105_249
*1011 FILLER_105_261
*1012 FILLER_105_27
*1013 FILLER_105_273
*1014 FILLER_105_279
*1015 FILLER_105_281
*1016 FILLER_105_293
*1017 FILLER_105_3
*1018 FILLER_105_318
*1019 FILLER_105_330
*1020 FILLER_105_337
*1021 FILLER_105_349
*1022 FILLER_105_361
*1023 FILLER_105_373
*1024 FILLER_105_385
*1025 FILLER_105_39
*1026 FILLER_105_391
*1027 FILLER_105_393
*1028 FILLER_105_405
*1029 FILLER_105_417
*1030 FILLER_105_429
*1031 FILLER_105_441
*1032 FILLER_105_447
*1033 FILLER_105_449
*1034 FILLER_105_461
*1035 FILLER_105_473
*1036 FILLER_105_485
*1037 FILLER_105_497
*1038 FILLER_105_503
*1039 FILLER_105_505
*1040 FILLER_105_51
*1041 FILLER_105_517
*1042 FILLER_105_529
*1043 FILLER_105_541
*1044 FILLER_105_55
*1045 FILLER_105_553
*1046 FILLER_105_559
*1047 FILLER_105_561
*1048 FILLER_105_57
*1049 FILLER_105_573
*1050 FILLER_105_585
*1051 FILLER_105_597
*1052 FILLER_105_606
*1053 FILLER_105_614
*1054 FILLER_105_617
*1055 FILLER_105_629
*1056 FILLER_105_641
*1057 FILLER_105_653
*1058 FILLER_105_665
*1059 FILLER_105_671
*1060 FILLER_105_673
*1061 FILLER_105_685
*1062 FILLER_105_69
*1063 FILLER_105_697
*1064 FILLER_105_709
*1065 FILLER_105_717
*1066 FILLER_105_724
*1067 FILLER_105_729
*1068 FILLER_105_81
*1069 FILLER_105_93
*1070 FILLER_106_109
*1071 FILLER_106_121
*1072 FILLER_106_133
*1073 FILLER_106_139
*1074 FILLER_106_141
*1075 FILLER_106_15
*1076 FILLER_106_153
*1077 FILLER_106_165
*1078 FILLER_106_177
*1079 FILLER_106_189
*1080 FILLER_106_195
*1081 FILLER_106_197
*1082 FILLER_106_209
*1083 FILLER_106_221
*1084 FILLER_106_233
*1085 FILLER_106_245
*1086 FILLER_106_251
*1087 FILLER_106_253
*1088 FILLER_106_265
*1089 FILLER_106_27
*1090 FILLER_106_277
*1091 FILLER_106_289
*1092 FILLER_106_29
*1093 FILLER_106_3
*1094 FILLER_106_300
*1095 FILLER_106_309
*1096 FILLER_106_321
*1097 FILLER_106_333
*1098 FILLER_106_345
*1099 FILLER_106_357
*1100 FILLER_106_363
*1101 FILLER_106_365
*1102 FILLER_106_377
*1103 FILLER_106_389
*1104 FILLER_106_401
*1105 FILLER_106_41
*1106 FILLER_106_413
*1107 FILLER_106_419
*1108 FILLER_106_421
*1109 FILLER_106_433
*1110 FILLER_106_445
*1111 FILLER_106_457
*1112 FILLER_106_469
*1113 FILLER_106_475
*1114 FILLER_106_477
*1115 FILLER_106_489
*1116 FILLER_106_501
*1117 FILLER_106_513
*1118 FILLER_106_525
*1119 FILLER_106_53
*1120 FILLER_106_531
*1121 FILLER_106_533
*1122 FILLER_106_545
*1123 FILLER_106_560
*1124 FILLER_106_572
*1125 FILLER_106_584
*1126 FILLER_106_589
*1127 FILLER_106_601
*1128 FILLER_106_613
*1129 FILLER_106_625
*1130 FILLER_106_637
*1131 FILLER_106_643
*1132 FILLER_106_645
*1133 FILLER_106_65
*1134 FILLER_106_657
*1135 FILLER_106_669
*1136 FILLER_106_681
*1137 FILLER_106_693
*1138 FILLER_106_699
*1139 FILLER_106_701
*1140 FILLER_106_713
*1141 FILLER_106_725
*1142 FILLER_106_77
*1143 FILLER_106_83
*1144 FILLER_106_85
*1145 FILLER_106_97
*1146 FILLER_107_105
*1147 FILLER_107_111
*1148 FILLER_107_113
*1149 FILLER_107_125
*1150 FILLER_107_137
*1151 FILLER_107_149
*1152 FILLER_107_161
*1153 FILLER_107_167
*1154 FILLER_107_169
*1155 FILLER_107_181
*1156 FILLER_107_19
*1157 FILLER_107_193
*1158 FILLER_107_205
*1159 FILLER_107_217
*1160 FILLER_107_223
*1161 FILLER_107_225
*1162 FILLER_107_237
*1163 FILLER_107_249
*1164 FILLER_107_261
*1165 FILLER_107_273
*1166 FILLER_107_279
*1167 FILLER_107_281
*1168 FILLER_107_293
*1169 FILLER_107_305
*1170 FILLER_107_31
*1171 FILLER_107_317
*1172 FILLER_107_329
*1173 FILLER_107_335
*1174 FILLER_107_337
*1175 FILLER_107_349
*1176 FILLER_107_361
*1177 FILLER_107_373
*1178 FILLER_107_385
*1179 FILLER_107_391
*1180 FILLER_107_393
*1181 FILLER_107_405
*1182 FILLER_107_417
*1183 FILLER_107_429
*1184 FILLER_107_43
*1185 FILLER_107_441
*1186 FILLER_107_447
*1187 FILLER_107_449
*1188 FILLER_107_461
*1189 FILLER_107_473
*1190 FILLER_107_485
*1191 FILLER_107_497
*1192 FILLER_107_503
*1193 FILLER_107_505
*1194 FILLER_107_513
*1195 FILLER_107_518
*1196 FILLER_107_543
*1197 FILLER_107_55
*1198 FILLER_107_555
*1199 FILLER_107_559
*1200 FILLER_107_57
*1201 FILLER_107_582
*1202 FILLER_107_594
*1203 FILLER_107_606
*1204 FILLER_107_614
*1205 FILLER_107_617
*1206 FILLER_107_629
*1207 FILLER_107_641
*1208 FILLER_107_653
*1209 FILLER_107_665
*1210 FILLER_107_671
*1211 FILLER_107_673
*1212 FILLER_107_685
*1213 FILLER_107_69
*1214 FILLER_107_697
*1215 FILLER_107_7
*1216 FILLER_107_709
*1217 FILLER_107_721
*1218 FILLER_107_727
*1219 FILLER_107_729
*1220 FILLER_107_81
*1221 FILLER_107_93
*1222 FILLER_108_109
*1223 FILLER_108_121
*1224 FILLER_108_133
*1225 FILLER_108_139
*1226 FILLER_108_141
*1227 FILLER_108_149
*1228 FILLER_108_15
*1229 FILLER_108_153
*1230 FILLER_108_165
*1231 FILLER_108_177
*1232 FILLER_108_189
*1233 FILLER_108_195
*1234 FILLER_108_197
*1235 FILLER_108_209
*1236 FILLER_108_221
*1237 FILLER_108_233
*1238 FILLER_108_245
*1239 FILLER_108_251
*1240 FILLER_108_253
*1241 FILLER_108_265
*1242 FILLER_108_27
*1243 FILLER_108_277
*1244 FILLER_108_289
*1245 FILLER_108_29
*1246 FILLER_108_3
*1247 FILLER_108_301
*1248 FILLER_108_307
*1249 FILLER_108_309
*1250 FILLER_108_321
*1251 FILLER_108_333
*1252 FILLER_108_345
*1253 FILLER_108_357
*1254 FILLER_108_363
*1255 FILLER_108_365
*1256 FILLER_108_377
*1257 FILLER_108_389
*1258 FILLER_108_401
*1259 FILLER_108_41
*1260 FILLER_108_413
*1261 FILLER_108_419
*1262 FILLER_108_421
*1263 FILLER_108_433
*1264 FILLER_108_445
*1265 FILLER_108_457
*1266 FILLER_108_469
*1267 FILLER_108_475
*1268 FILLER_108_477
*1269 FILLER_108_489
*1270 FILLER_108_501
*1271 FILLER_108_513
*1272 FILLER_108_521
*1273 FILLER_108_526
*1274 FILLER_108_53
*1275 FILLER_108_533
*1276 FILLER_108_545
*1277 FILLER_108_560
*1278 FILLER_108_572
*1279 FILLER_108_584
*1280 FILLER_108_589
*1281 FILLER_108_601
*1282 FILLER_108_613
*1283 FILLER_108_625
*1284 FILLER_108_637
*1285 FILLER_108_643
*1286 FILLER_108_645
*1287 FILLER_108_65
*1288 FILLER_108_657
*1289 FILLER_108_669
*1290 FILLER_108_681
*1291 FILLER_108_693
*1292 FILLER_108_699
*1293 FILLER_108_701
*1294 FILLER_108_713
*1295 FILLER_108_725
*1296 FILLER_108_77
*1297 FILLER_108_83
*1298 FILLER_108_85
*1299 FILLER_108_97
*1300 FILLER_109_108
*1301 FILLER_109_113
*1302 FILLER_109_125
*1303 FILLER_109_137
*1304 FILLER_109_15
*1305 FILLER_109_164
*1306 FILLER_109_169
*1307 FILLER_109_181
*1308 FILLER_109_193
*1309 FILLER_109_205
*1310 FILLER_109_217
*1311 FILLER_109_223
*1312 FILLER_109_225
*1313 FILLER_109_237
*1314 FILLER_109_249
*1315 FILLER_109_261
*1316 FILLER_109_27
*1317 FILLER_109_273
*1318 FILLER_109_279
*1319 FILLER_109_281
*1320 FILLER_109_293
*1321 FILLER_109_3
*1322 FILLER_109_305
*1323 FILLER_109_317
*1324 FILLER_109_329
*1325 FILLER_109_335
*1326 FILLER_109_337
*1327 FILLER_109_349
*1328 FILLER_109_361
*1329 FILLER_109_373
*1330 FILLER_109_385
*1331 FILLER_109_39
*1332 FILLER_109_391
*1333 FILLER_109_393
*1334 FILLER_109_405
*1335 FILLER_109_417
*1336 FILLER_109_429
*1337 FILLER_109_441
*1338 FILLER_109_447
*1339 FILLER_109_449
*1340 FILLER_109_461
*1341 FILLER_109_473
*1342 FILLER_109_485
*1343 FILLER_109_497
*1344 FILLER_109_503
*1345 FILLER_109_505
*1346 FILLER_109_51
*1347 FILLER_109_517
*1348 FILLER_109_529
*1349 FILLER_109_541
*1350 FILLER_109_549
*1351 FILLER_109_55
*1352 FILLER_109_555
*1353 FILLER_109_559
*1354 FILLER_109_57
*1355 FILLER_109_582
*1356 FILLER_109_594
*1357 FILLER_109_606
*1358 FILLER_109_614
*1359 FILLER_109_617
*1360 FILLER_109_629
*1361 FILLER_109_641
*1362 FILLER_109_653
*1363 FILLER_109_665
*1364 FILLER_109_671
*1365 FILLER_109_673
*1366 FILLER_109_685
*1367 FILLER_109_69
*1368 FILLER_109_697
*1369 FILLER_109_709
*1370 FILLER_109_721
*1371 FILLER_109_727
*1372 FILLER_109_729
*1373 FILLER_109_81
*1374 FILLER_109_93
*1375 FILLER_10_109
*1376 FILLER_10_121
*1377 FILLER_10_133
*1378 FILLER_10_139
*1379 FILLER_10_141
*1380 FILLER_10_153
*1381 FILLER_10_165
*1382 FILLER_10_177
*1383 FILLER_10_189
*1384 FILLER_10_195
*1385 FILLER_10_197
*1386 FILLER_10_226
*1387 FILLER_10_238
*1388 FILLER_10_24
*1389 FILLER_10_250
*1390 FILLER_10_253
*1391 FILLER_10_265
*1392 FILLER_10_277
*1393 FILLER_10_289
*1394 FILLER_10_301
*1395 FILLER_10_307
*1396 FILLER_10_309
*1397 FILLER_10_321
*1398 FILLER_10_333
*1399 FILLER_10_345
*1400 FILLER_10_357
*1401 FILLER_10_363
*1402 FILLER_10_365
*1403 FILLER_10_377
*1404 FILLER_10_389
*1405 FILLER_10_401
*1406 FILLER_10_413
*1407 FILLER_10_419
*1408 FILLER_10_421
*1409 FILLER_10_433
*1410 FILLER_10_445
*1411 FILLER_10_457
*1412 FILLER_10_469
*1413 FILLER_10_475
*1414 FILLER_10_477
*1415 FILLER_10_489
*1416 FILLER_10_50
*1417 FILLER_10_501
*1418 FILLER_10_513
*1419 FILLER_10_525
*1420 FILLER_10_531
*1421 FILLER_10_533
*1422 FILLER_10_545
*1423 FILLER_10_557
*1424 FILLER_10_569
*1425 FILLER_10_581
*1426 FILLER_10_587
*1427 FILLER_10_589
*1428 FILLER_10_601
*1429 FILLER_10_613
*1430 FILLER_10_62
*1431 FILLER_10_625
*1432 FILLER_10_637
*1433 FILLER_10_643
*1434 FILLER_10_645
*1435 FILLER_10_657
*1436 FILLER_10_669
*1437 FILLER_10_681
*1438 FILLER_10_693
*1439 FILLER_10_699
*1440 FILLER_10_701
*1441 FILLER_10_713
*1442 FILLER_10_721
*1443 FILLER_10_729
*1444 FILLER_10_74
*1445 FILLER_10_82
*1446 FILLER_10_85
*1447 FILLER_10_97
*1448 FILLER_110_101
*1449 FILLER_110_123
*1450 FILLER_110_135
*1451 FILLER_110_139
*1452 FILLER_110_141
*1453 FILLER_110_148
*1454 FILLER_110_15
*1455 FILLER_110_160
*1456 FILLER_110_172
*1457 FILLER_110_184
*1458 FILLER_110_197
*1459 FILLER_110_209
*1460 FILLER_110_221
*1461 FILLER_110_233
*1462 FILLER_110_245
*1463 FILLER_110_251
*1464 FILLER_110_253
*1465 FILLER_110_265
*1466 FILLER_110_27
*1467 FILLER_110_277
*1468 FILLER_110_289
*1469 FILLER_110_29
*1470 FILLER_110_3
*1471 FILLER_110_301
*1472 FILLER_110_307
*1473 FILLER_110_309
*1474 FILLER_110_321
*1475 FILLER_110_333
*1476 FILLER_110_345
*1477 FILLER_110_357
*1478 FILLER_110_363
*1479 FILLER_110_365
*1480 FILLER_110_377
*1481 FILLER_110_389
*1482 FILLER_110_401
*1483 FILLER_110_41
*1484 FILLER_110_413
*1485 FILLER_110_419
*1486 FILLER_110_421
*1487 FILLER_110_433
*1488 FILLER_110_445
*1489 FILLER_110_457
*1490 FILLER_110_469
*1491 FILLER_110_475
*1492 FILLER_110_477
*1493 FILLER_110_489
*1494 FILLER_110_501
*1495 FILLER_110_513
*1496 FILLER_110_525
*1497 FILLER_110_53
*1498 FILLER_110_531
*1499 FILLER_110_533
*1500 FILLER_110_545
*1501 FILLER_110_553
*1502 FILLER_110_557
*1503 FILLER_110_569
*1504 FILLER_110_581
*1505 FILLER_110_587
*1506 FILLER_110_589
*1507 FILLER_110_601
*1508 FILLER_110_613
*1509 FILLER_110_619
*1510 FILLER_110_623
*1511 FILLER_110_635
*1512 FILLER_110_643
*1513 FILLER_110_645
*1514 FILLER_110_65
*1515 FILLER_110_657
*1516 FILLER_110_669
*1517 FILLER_110_681
*1518 FILLER_110_693
*1519 FILLER_110_699
*1520 FILLER_110_701
*1521 FILLER_110_713
*1522 FILLER_110_725
*1523 FILLER_110_77
*1524 FILLER_110_83
*1525 FILLER_110_85
*1526 FILLER_110_97
*1527 FILLER_111_101
*1528 FILLER_111_105
*1529 FILLER_111_111
*1530 FILLER_111_113
*1531 FILLER_111_125
*1532 FILLER_111_137
*1533 FILLER_111_149
*1534 FILLER_111_15
*1535 FILLER_111_161
*1536 FILLER_111_167
*1537 FILLER_111_169
*1538 FILLER_111_181
*1539 FILLER_111_193
*1540 FILLER_111_205
*1541 FILLER_111_217
*1542 FILLER_111_223
*1543 FILLER_111_225
*1544 FILLER_111_237
*1545 FILLER_111_249
*1546 FILLER_111_261
*1547 FILLER_111_27
*1548 FILLER_111_273
*1549 FILLER_111_279
*1550 FILLER_111_281
*1551 FILLER_111_293
*1552 FILLER_111_3
*1553 FILLER_111_305
*1554 FILLER_111_317
*1555 FILLER_111_323
*1556 FILLER_111_327
*1557 FILLER_111_335
*1558 FILLER_111_337
*1559 FILLER_111_349
*1560 FILLER_111_361
*1561 FILLER_111_373
*1562 FILLER_111_385
*1563 FILLER_111_39
*1564 FILLER_111_391
*1565 FILLER_111_393
*1566 FILLER_111_399
*1567 FILLER_111_411
*1568 FILLER_111_423
*1569 FILLER_111_435
*1570 FILLER_111_442
*1571 FILLER_111_449
*1572 FILLER_111_461
*1573 FILLER_111_473
*1574 FILLER_111_485
*1575 FILLER_111_497
*1576 FILLER_111_503
*1577 FILLER_111_505
*1578 FILLER_111_51
*1579 FILLER_111_517
*1580 FILLER_111_529
*1581 FILLER_111_541
*1582 FILLER_111_55
*1583 FILLER_111_553
*1584 FILLER_111_559
*1585 FILLER_111_561
*1586 FILLER_111_57
*1587 FILLER_111_573
*1588 FILLER_111_585
*1589 FILLER_111_597
*1590 FILLER_111_602
*1591 FILLER_111_614
*1592 FILLER_111_617
*1593 FILLER_111_642
*1594 FILLER_111_654
*1595 FILLER_111_666
*1596 FILLER_111_673
*1597 FILLER_111_685
*1598 FILLER_111_69
*1599 FILLER_111_697
*1600 FILLER_111_709
*1601 FILLER_111_721
*1602 FILLER_111_727
*1603 FILLER_111_729
*1604 FILLER_111_81
*1605 FILLER_111_93
*1606 FILLER_112_109
*1607 FILLER_112_121
*1608 FILLER_112_133
*1609 FILLER_112_139
*1610 FILLER_112_141
*1611 FILLER_112_153
*1612 FILLER_112_165
*1613 FILLER_112_177
*1614 FILLER_112_189
*1615 FILLER_112_19
*1616 FILLER_112_195
*1617 FILLER_112_197
*1618 FILLER_112_209
*1619 FILLER_112_213
*1620 FILLER_112_225
*1621 FILLER_112_237
*1622 FILLER_112_249
*1623 FILLER_112_253
*1624 FILLER_112_265
*1625 FILLER_112_27
*1626 FILLER_112_277
*1627 FILLER_112_286
*1628 FILLER_112_29
*1629 FILLER_112_298
*1630 FILLER_112_306
*1631 FILLER_112_309
*1632 FILLER_112_317
*1633 FILLER_112_341
*1634 FILLER_112_353
*1635 FILLER_112_361
*1636 FILLER_112_365
*1637 FILLER_112_377
*1638 FILLER_112_389
*1639 FILLER_112_41
*1640 FILLER_112_416
*1641 FILLER_112_421
*1642 FILLER_112_433
*1643 FILLER_112_437
*1644 FILLER_112_459
*1645 FILLER_112_471