*SPEF "ieee 1481-1999"
*DESIGN "wrapped_etpu"
*DATE "11:11:11 Fri 11 11, 1111"
*VENDOR "OpenRCX"
*PROGRAM "Parallel Extraction"
*VERSION "1.0"
*DESIGN_FLOW "NAME_SCOPE LOCAL" "PIN_CAP NONE"
*DIVIDER /
*DELIMITER :
*BUS_DELIMITER []
*T_UNIT 1 NS
*C_UNIT 1 PF
*R_UNIT 1 OHM
*L_UNIT 1 HENRY

*NAME_MAP
*1 active
*2 io_in[0]
*3 io_in[10]
*4 io_in[11]
*5 io_in[12]
*6 io_in[13]
*7 io_in[14]
*8 io_in[15]
*9 io_in[16]
*10 io_in[17]
*11 io_in[18]
*12 io_in[19]
*13 io_in[1]
*14 io_in[20]
*15 io_in[21]
*16 io_in[22]
*17 io_in[23]
*18 io_in[24]
*19 io_in[25]
*20 io_in[26]
*21 io_in[27]
*22 io_in[28]
*23 io_in[29]
*24 io_in[2]
*25 io_in[30]
*26 io_in[31]
*27 io_in[32]
*28 io_in[33]
*29 io_in[34]
*30 io_in[35]
*31 io_in[36]
*32 io_in[37]
*33 io_in[3]
*34 io_in[4]
*35 io_in[5]
*36 io_in[6]
*37 io_in[7]
*38 io_in[8]
*39 io_in[9]
*40 io_oeb[0]
*41 io_oeb[10]
*42 io_oeb[11]
*43 io_oeb[12]
*44 io_oeb[13]
*45 io_oeb[14]
*46 io_oeb[15]
*47 io_oeb[16]
*48 io_oeb[17]
*49 io_oeb[18]
*50 io_oeb[19]
*51 io_oeb[1]
*52 io_oeb[20]
*53 io_oeb[21]
*54 io_oeb[22]
*55 io_oeb[23]
*56 io_oeb[24]
*57 io_oeb[25]
*58 io_oeb[26]
*59 io_oeb[27]
*60 io_oeb[28]
*61 io_oeb[29]
*62 io_oeb[2]
*63 io_oeb[30]
*64 io_oeb[31]
*65 io_oeb[32]
*66 io_oeb[33]
*67 io_oeb[34]
*68 io_oeb[35]
*69 io_oeb[36]
*70 io_oeb[37]
*71 io_oeb[3]
*72 io_oeb[4]
*73 io_oeb[5]
*74 io_oeb[6]
*75 io_oeb[7]
*76 io_oeb[8]
*77 io_oeb[9]
*78 io_out[0]
*79 io_out[10]
*80 io_out[11]
*81 io_out[12]
*82 io_out[13]
*83 io_out[14]
*84 io_out[15]
*85 io_out[16]
*86 io_out[17]
*87 io_out[18]
*88 io_out[19]
*89 io_out[1]
*90 io_out[20]
*91 io_out[21]
*92 io_out[22]
*93 io_out[23]
*94 io_out[24]
*95 io_out[25]
*96 io_out[26]
*97 io_out[27]
*98 io_out[28]
*99 io_out[29]
*100 io_out[2]
*101 io_out[30]
*102 io_out[31]
*103 io_out[32]
*104 io_out[33]
*105 io_out[34]
*106 io_out[35]
*107 io_out[36]
*108 io_out[37]
*109 io_out[3]
*110 io_out[4]
*111 io_out[5]
*112 io_out[6]
*113 io_out[7]
*114 io_out[8]
*115 io_out[9]
*118 wb_clk_i
*119 wb_rst_i
*120 wbs_ack_o
*121 wbs_adr_i[0]
*122 wbs_adr_i[10]
*123 wbs_adr_i[11]
*124 wbs_adr_i[12]
*125 wbs_adr_i[13]
*126 wbs_adr_i[14]
*127 wbs_adr_i[15]
*128 wbs_adr_i[16]
*129 wbs_adr_i[17]
*130 wbs_adr_i[18]
*131 wbs_adr_i[19]
*132 wbs_adr_i[1]
*133 wbs_adr_i[20]
*134 wbs_adr_i[21]
*135 wbs_adr_i[22]
*136 wbs_adr_i[23]
*137 wbs_adr_i[24]
*138 wbs_adr_i[25]
*139 wbs_adr_i[26]
*140 wbs_adr_i[27]
*141 wbs_adr_i[28]
*142 wbs_adr_i[29]
*143 wbs_adr_i[2]
*144 wbs_adr_i[30]
*145 wbs_adr_i[31]
*146 wbs_adr_i[3]
*147 wbs_adr_i[4]
*148 wbs_adr_i[5]
*149 wbs_adr_i[6]
*150 wbs_adr_i[7]
*151 wbs_adr_i[8]
*152 wbs_adr_i[9]
*153 wbs_cyc_i
*154 wbs_dat_i[0]
*155 wbs_dat_i[10]
*156 wbs_dat_i[11]
*157 wbs_dat_i[12]
*158 wbs_dat_i[13]
*159 wbs_dat_i[14]
*160 wbs_dat_i[15]
*161 wbs_dat_i[16]
*162 wbs_dat_i[17]
*163 wbs_dat_i[18]
*164 wbs_dat_i[19]
*165 wbs_dat_i[1]
*166 wbs_dat_i[20]
*167 wbs_dat_i[21]
*168 wbs_dat_i[22]
*169 wbs_dat_i[23]
*170 wbs_dat_i[24]
*171 wbs_dat_i[25]
*172 wbs_dat_i[26]
*173 wbs_dat_i[27]
*174 wbs_dat_i[28]
*175 wbs_dat_i[29]
*176 wbs_dat_i[2]
*177 wbs_dat_i[30]
*178 wbs_dat_i[31]
*179 wbs_dat_i[3]
*180 wbs_dat_i[4]
*181 wbs_dat_i[5]
*182 wbs_dat_i[6]
*183 wbs_dat_i[7]
*184 wbs_dat_i[8]
*185 wbs_dat_i[9]
*186 wbs_dat_o[0]
*187 wbs_dat_o[10]
*188 wbs_dat_o[11]
*189 wbs_dat_o[12]
*190 wbs_dat_o[13]
*191 wbs_dat_o[14]
*192 wbs_dat_o[15]
*193 wbs_dat_o[16]
*194 wbs_dat_o[17]
*195 wbs_dat_o[18]
*196 wbs_dat_o[19]
*197 wbs_dat_o[1]
*198 wbs_dat_o[20]
*199 wbs_dat_o[21]
*200 wbs_dat_o[22]
*201 wbs_dat_o[23]
*202 wbs_dat_o[24]
*203 wbs_dat_o[25]
*204 wbs_dat_o[26]
*205 wbs_dat_o[27]
*206 wbs_dat_o[28]
*207 wbs_dat_o[29]
*208 wbs_dat_o[2]
*209 wbs_dat_o[30]
*210 wbs_dat_o[31]
*211 wbs_dat_o[3]
*212 wbs_dat_o[4]
*213 wbs_dat_o[5]
*214 wbs_dat_o[6]
*215 wbs_dat_o[7]
*216 wbs_dat_o[8]
*217 wbs_dat_o[9]
*218 wbs_sel_i[0]
*219 wbs_sel_i[1]
*220 wbs_sel_i[2]
*221 wbs_sel_i[3]
*222 wbs_stb_i
*223 wbs_we_i
*224 _000_
*225 _001_
*226 _002_
*227 _003_
*228 _004_
*229 _005_
*230 _006_
*231 _007_
*232 _008_
*233 _009_
*234 _010_
*235 _011_
*236 _012_
*237 _013_
*238 _014_
*239 _015_
*240 _016_
*241 _017_
*242 _018_
*243 _019_
*244 _020_
*245 _021_
*246 _022_
*247 _023_
*248 _024_
*249 _025_
*250 _026_
*251 _027_
*252 _028_
*253 _029_
*254 _030_
*255 _031_
*256 _032_
*257 _033_
*258 _034_
*259 _035_
*260 _036_
*261 _037_
*262 _038_
*263 _039_
*264 _040_
*265 _041_
*266 _042_
*267 _043_
*268 _044_
*269 _045_
*270 _046_
*271 _047_
*272 _048_
*273 _049_
*274 _050_
*275 _051_
*276 _052_
*277 _053_
*278 _054_
*279 _055_
*280 _056_
*281 _057_
*282 _058_
*283 _059_
*284 _060_
*285 _061_
*286 _062_
*287 _063_
*288 _064_
*289 _065_
*290 _066_
*291 _067_
*292 _068_
*293 _069_
*294 _070_
*295 _071_
*296 _072_
*297 _073_
*298 _074_
*299 _075_
*300 _076_
*301 _077_
*302 _078_
*303 _079_
*304 _080_
*305 _081_
*306 _082_
*307 _083_
*308 _084_
*309 _085_
*310 _086_
*311 _087_
*312 _088_
*313 _089_
*314 _090_
*315 _091_
*316 _092_
*317 _093_
*318 _094_
*319 _095_
*320 _096_
*321 _097_
*322 _098_
*323 _099_
*324 _100_
*325 _101_
*326 _102_
*327 _103_
*328 _104_
*329 _105_
*330 _106_
*331 _107_
*332 _108_
*333 _109_
*334 _110_
*335 _111_
*336 _112_
*337 _113_
*338 _114_
*339 _115_
*340 _116_
*341 _117_
*342 _118_
*343 _119_
*344 _120_
*345 _121_
*346 _122_
*347 _123_
*348 _124_
*349 _125_
*350 _126_
*351 _127_
*352 _128_
*353 _129_
*354 _130_
*355 _131_
*356 _132_
*357 _133_
*358 _134_
*359 _135_
*360 _136_
*361 _137_
*362 _138_
*363 _139_
*364 _140_
*365 _141_
*366 _142_
*367 _143_
*368 etpu\.caravel_wb_ack_o
*369 net1
*370 net10
*371 net100
*372 net101
*373 net102
*374 net103
*375 net104
*376 net105
*377 net106
*378 net107
*379 net108
*380 net109
*381 net11
*382 net110
*383 net111
*384 net112
*385 net113
*386 net114
*387 net115
*388 net116
*389 net117
*390 net118
*391 net119
*392 net12
*393 net120
*394 net121
*395 net122
*396 net123
*397 net124
*398 net125
*399 net126
*400 net127
*401 net128
*402 net129
*403 net13
*404 net130
*405 net131
*406 net132
*407 net133
*408 net134
*409 net135
*410 net14
*411 net15
*412 net16
*413 net17
*414 net18
*415 net19
*416 net2
*417 net20
*418 net21
*419 net22
*420 net23
*421 net24
*422 net25
*423 net26
*424 net27
*425 net28
*426 net29
*427 net3
*428 net30
*429 net31
*430 net32
*431 net33
*432 net34
*433 net35
*434 net36
*435 net37
*436 net38
*437 net39
*438 net4
*439 net40
*440 net41
*441 net42
*442 net43
*443 net44
*444 net45
*445 net46
*446 net47
*447 net48
*448 net49
*449 net5
*450 net50
*451 net51
*452 net52
*453 net53
*454 net54
*455 net55
*456 net56
*457 net57
*458 net58
*459 net59
*460 net6
*461 net60
*462 net61
*463 net62
*464 net63
*465 net64
*466 net65
*467 net66
*468 net67
*469 net68
*470 net69
*471 net7
*472 net70
*473 net71
*474 net72
*475 net73
*476 net74
*477 net75
*478 net76
*479 net77
*480 net78
*481 net79
*482 net8
*483 net80
*484 net81
*485 net82
*486 net83
*487 net84
*488 net85
*489 net86
*490 net87
*491 net88
*492 net89
*493 net9
*494 net90
*495 net91
*496 net92
*497 net93
*498 net94
*499 net95
*500 net96
*501 net97
*502 net98
*503 net99
*504 ANTENNA_0
*505 ANTENNA_1
*506 ANTENNA_2
*507 ANTENNA_3
*508 ANTENNA_4
*509 ANTENNA_5
*510 ANTENNA_6
*511 ANTENNA_7
*512 ANTENNA_8
*513 ANTENNA_9
*514 FILLER_0_109
*515 FILLER_0_113
*516 FILLER_0_125
*517 FILLER_0_137
*518 FILLER_0_141
*519 FILLER_0_15
*520 FILLER_0_153
*521 FILLER_0_165
*522 FILLER_0_169
*523 FILLER_0_181
*524 FILLER_0_193
*525 FILLER_0_197
*526 FILLER_0_209
*527 FILLER_0_221
*528 FILLER_0_225
*529 FILLER_0_237
*530 FILLER_0_249
*531 FILLER_0_253
*532 FILLER_0_265
*533 FILLER_0_27
*534 FILLER_0_277
*535 FILLER_0_281
*536 FILLER_0_289
*537 FILLER_0_293
*538 FILLER_0_3
*539 FILLER_0_304
*540 FILLER_0_309
*541 FILLER_0_321
*542 FILLER_0_33
*543 FILLER_0_333
*544 FILLER_0_337
*545 FILLER_0_349
*546 FILLER_0_361
*547 FILLER_0_365
*548 FILLER_0_377
*549 FILLER_0_389
*550 FILLER_0_393
*551 FILLER_0_405
*552 FILLER_0_417
*553 FILLER_0_421
*554 FILLER_0_433
*555 FILLER_0_445
*556 FILLER_0_449
*557 FILLER_0_45
*558 FILLER_0_461
*559 FILLER_0_473
*560 FILLER_0_477
*561 FILLER_0_489
*562 FILLER_0_501
*563 FILLER_0_505
*564 FILLER_0_517
*565 FILLER_0_529
*566 FILLER_0_53
*567 FILLER_0_533
*568 FILLER_0_545
*569 FILLER_0_557
*570 FILLER_0_561
*571 FILLER_0_57
*572 FILLER_0_573
*573 FILLER_0_585
*574 FILLER_0_589
*575 FILLER_0_597
*576 FILLER_0_602
*577 FILLER_0_614
*578 FILLER_0_617
*579 FILLER_0_629
*580 FILLER_0_641
*581 FILLER_0_645
*582 FILLER_0_657
*583 FILLER_0_669
*584 FILLER_0_673
*585 FILLER_0_685
*586 FILLER_0_69
*587 FILLER_0_697
*588 FILLER_0_705
*589 FILLER_0_717
*590 FILLER_0_724
*591 FILLER_0_729
*592 FILLER_0_81
*593 FILLER_0_85
*594 FILLER_0_97
*595 FILLER_100_109
*596 FILLER_100_11
*597 FILLER_100_121
*598 FILLER_100_133
*599 FILLER_100_139
*600 FILLER_100_141
*601 FILLER_100_153
*602 FILLER_100_165
*603 FILLER_100_177
*604 FILLER_100_189
*605 FILLER_100_195
*606 FILLER_100_197
*607 FILLER_100_209
*608 FILLER_100_221
*609 FILLER_100_23
*610 FILLER_100_233
*611 FILLER_100_245
*612 FILLER_100_251
*613 FILLER_100_253
*614 FILLER_100_265
*615 FILLER_100_27
*616 FILLER_100_277
*617 FILLER_100_289
*618 FILLER_100_29
*619 FILLER_100_3
*620 FILLER_100_301
*621 FILLER_100_307
*622 FILLER_100_309
*623 FILLER_100_321
*624 FILLER_100_333
*625 FILLER_100_345
*626 FILLER_100_357
*627 FILLER_100_363
*628 FILLER_100_365
*629 FILLER_100_377
*630 FILLER_100_389
*631 FILLER_100_401
*632 FILLER_100_41
*633 FILLER_100_413
*634 FILLER_100_419
*635 FILLER_100_421
*636 FILLER_100_433
*637 FILLER_100_445
*638 FILLER_100_457
*639 FILLER_100_466
*640 FILLER_100_474
*641 FILLER_100_477
*642 FILLER_100_489
*643 FILLER_100_501
*644 FILLER_100_513
*645 FILLER_100_525
*646 FILLER_100_53
*647 FILLER_100_531
*648 FILLER_100_533
*649 FILLER_100_545
*650 FILLER_100_557
*651 FILLER_100_569
*652 FILLER_100_581
*653 FILLER_100_587
*654 FILLER_100_589
*655 FILLER_100_601
*656 FILLER_100_613
*657 FILLER_100_625
*658 FILLER_100_637
*659 FILLER_100_643
*660 FILLER_100_645
*661 FILLER_100_65
*662 FILLER_100_657
*663 FILLER_100_669
*664 FILLER_100_681
*665 FILLER_100_693
*666 FILLER_100_699
*667 FILLER_100_701
*668 FILLER_100_713
*669 FILLER_100_725
*670 FILLER_100_77
*671 FILLER_100_83
*672 FILLER_100_85
*673 FILLER_100_97
*674 FILLER_101_105
*675 FILLER_101_111
*676 FILLER_101_113
*677 FILLER_101_125
*678 FILLER_101_137
*679 FILLER_101_149
*680 FILLER_101_15
*681 FILLER_101_161
*682 FILLER_101_167
*683 FILLER_101_169
*684 FILLER_101_181
*685 FILLER_101_193
*686 FILLER_101_205
*687 FILLER_101_217
*688 FILLER_101_223
*689 FILLER_101_225
*690 FILLER_101_237
*691 FILLER_101_249
*692 FILLER_101_261
*693 FILLER_101_27
*694 FILLER_101_273
*695 FILLER_101_279
*696 FILLER_101_281
*697 FILLER_101_293
*698 FILLER_101_3
*699 FILLER_101_305
*700 FILLER_101_317
*701 FILLER_101_329
*702 FILLER_101_335
*703 FILLER_101_337
*704 FILLER_101_349
*705 FILLER_101_361
*706 FILLER_101_373
*707 FILLER_101_385
*708 FILLER_101_39
*709 FILLER_101_391
*710 FILLER_101_393
*711 FILLER_101_405
*712 FILLER_101_417
*713 FILLER_101_429
*714 FILLER_101_441
*715 FILLER_101_447
*716 FILLER_101_449
*717 FILLER_101_461
*718 FILLER_101_473
*719 FILLER_101_485
*720 FILLER_101_497
*721 FILLER_101_503
*722 FILLER_101_505
*723 FILLER_101_51
*724 FILLER_101_517
*725 FILLER_101_529
*726 FILLER_101_541
*727 FILLER_101_55
*728 FILLER_101_553
*729 FILLER_101_559
*730 FILLER_101_561
*731 FILLER_101_57
*732 FILLER_101_573
*733 FILLER_101_585
*734 FILLER_101_597
*735 FILLER_101_602
*736 FILLER_101_614
*737 FILLER_101_617
*738 FILLER_101_629
*739 FILLER_101_641
*740 FILLER_101_653
*741 FILLER_101_665
*742 FILLER_101_671
*743 FILLER_101_673
*744 FILLER_101_685
*745 FILLER_101_69
*746 FILLER_101_697
*747 FILLER_101_709
*748 FILLER_101_721
*749 FILLER_101_727
*750 FILLER_101_729
*751 FILLER_101_81
*752 FILLER_101_93
*753 FILLER_102_109
*754 FILLER_102_121
*755 FILLER_102_133
*756 FILLER_102_139
*757 FILLER_102_141
*758 FILLER_102_15
*759 FILLER_102_153
*760 FILLER_102_165
*761 FILLER_102_177
*762 FILLER_102_189
*763 FILLER_102_195
*764 FILLER_102_197
*765 FILLER_102_209
*766 FILLER_102_221
*767 FILLER_102_233
*768 FILLER_102_245
*769 FILLER_102_251
*770 FILLER_102_253
*771 FILLER_102_265
*772 FILLER_102_27
*773 FILLER_102_277
*774 FILLER_102_289
*775 FILLER_102_29
*776 FILLER_102_3
*777 FILLER_102_301
*778 FILLER_102_307
*779 FILLER_102_309
*780 FILLER_102_321
*781 FILLER_102_333
*782 FILLER_102_345
*783 FILLER_102_357
*784 FILLER_102_363
*785 FILLER_102_365
*786 FILLER_102_377
*787 FILLER_102_389
*788 FILLER_102_401
*789 FILLER_102_41
*790 FILLER_102_413
*791 FILLER_102_419
*792 FILLER_102_421
*793 FILLER_102_433
*794 FILLER_102_445
*795 FILLER_102_457
*796 FILLER_102_469
*797 FILLER_102_475
*798 FILLER_102_477
*799 FILLER_102_489
*800 FILLER_102_501
*801 FILLER_102_513
*802 FILLER_102_525
*803 FILLER_102_53
*804 FILLER_102_531
*805 FILLER_102_533
*806 FILLER_102_545
*807 FILLER_102_557
*808 FILLER_102_569
*809 FILLER_102_581
*810 FILLER_102_587
*811 FILLER_102_589
*812 FILLER_102_597
*813 FILLER_102_619
*814 FILLER_102_631
*815 FILLER_102_643
*816 FILLER_102_645
*817 FILLER_102_65
*818 FILLER_102_657
*819 FILLER_102_669
*820 FILLER_102_681
*821 FILLER_102_693
*822 FILLER_102_699
*823 FILLER_102_701
*824 FILLER_102_713
*825 FILLER_102_725
*826 FILLER_102_77
*827 FILLER_102_83
*828 FILLER_102_85
*829 FILLER_102_97
*830 FILLER_103_102
*831 FILLER_103_110
*832 FILLER_103_113
*833 FILLER_103_125
*834 FILLER_103_137
*835 FILLER_103_149
*836 FILLER_103_15
*837 FILLER_103_161
*838 FILLER_103_167
*839 FILLER_103_169
*840 FILLER_103_181
*841 FILLER_103_193
*842 FILLER_103_205
*843 FILLER_103_217
*844 FILLER_103_223
*845 FILLER_103_225
*846 FILLER_103_237
*847 FILLER_103_249
*848 FILLER_103_261
*849 FILLER_103_27
*850 FILLER_103_273
*851 FILLER_103_279
*852 FILLER_103_281
*853 FILLER_103_293
*854 FILLER_103_3
*855 FILLER_103_305
*856 FILLER_103_317
*857 FILLER_103_329
*858 FILLER_103_335
*859 FILLER_103_337
*860 FILLER_103_349
*861 FILLER_103_361
*862 FILLER_103_373
*863 FILLER_103_385
*864 FILLER_103_39
*865 FILLER_103_391
*866 FILLER_103_393
*867 FILLER_103_405
*868 FILLER_103_417
*869 FILLER_103_429
*870 FILLER_103_441
*871 FILLER_103_447
*872 FILLER_103_449
*873 FILLER_103_461
*874 FILLER_103_473
*875 FILLER_103_485
*876 FILLER_103_497
*877 FILLER_103_503
*878 FILLER_103_505
*879 FILLER_103_51
*880 FILLER_103_517
*881 FILLER_103_529
*882 FILLER_103_541
*883 FILLER_103_55
*884 FILLER_103_553
*885 FILLER_103_559
*886 FILLER_103_561
*887 FILLER_103_57
*888 FILLER_103_573
*889 FILLER_103_585
*890 FILLER_103_597
*891 FILLER_103_601
*892 FILLER_103_613
*893 FILLER_103_617
*894 FILLER_103_629
*895 FILLER_103_641
*896 FILLER_103_653
*897 FILLER_103_66
*898 FILLER_103_665
*899 FILLER_103_671
*900 FILLER_103_673
*901 FILLER_103_685
*902 FILLER_103_697
*903 FILLER_103_709
*904 FILLER_103_721
*905 FILLER_103_727
*906 FILLER_103_729
*907 FILLER_103_78
*908 FILLER_103_90
*909 FILLER_104_109
*910 FILLER_104_121
*911 FILLER_104_133
*912 FILLER_104_139
*913 FILLER_104_141
*914 FILLER_104_15
*915 FILLER_104_153
*916 FILLER_104_165
*917 FILLER_104_177
*918 FILLER_104_189
*919 FILLER_104_195
*920 FILLER_104_197
*921 FILLER_104_209
*922 FILLER_104_221
*923 FILLER_104_233
*924 FILLER_104_245
*925 FILLER_104_251
*926 FILLER_104_253
*927 FILLER_104_265
*928 FILLER_104_27
*929 FILLER_104_277
*930 FILLER_104_289
*931 FILLER_104_29
*932 FILLER_104_3
*933 FILLER_104_301
*934 FILLER_104_307
*935 FILLER_104_309
*936 FILLER_104_321
*937 FILLER_104_333
*938 FILLER_104_345
*939 FILLER_104_357
*940 FILLER_104_363
*941 FILLER_104_365
*942 FILLER_104_377
*943 FILLER_104_389
*944 FILLER_104_401
*945 FILLER_104_41
*946 FILLER_104_413
*947 FILLER_104_419
*948 FILLER_104_421
*949 FILLER_104_433
*950 FILLER_104_445
*951 FILLER_104_457
*952 FILLER_104_469
*953 FILLER_104_475
*954 FILLER_104_477
*955 FILLER_104_489
*956 FILLER_104_501
*957 FILLER_104_513
*958 FILLER_104_525
*959 FILLER_104_53
*960 FILLER_104_531
*961 FILLER_104_533
*962 FILLER_104_545
*963 FILLER_104_557
*964 FILLER_104_569
*965 FILLER_104_581
*966 FILLER_104_587
*967 FILLER_104_589
*968 FILLER_104_601
*969 FILLER_104_613
*970 FILLER_104_625
*971 FILLER_104_637
*972 FILLER_104_643
*973 FILLER_104_645
*974 FILLER_104_657
*975 FILLER_104_669
*976 FILLER_104_680
*977 FILLER_104_692
*978 FILLER_104_701
*979 FILLER_104_713
*980 FILLER_104_725
*981 FILLER_104_78
*982 FILLER_104_85
*983 FILLER_104_97
*984 FILLER_105_108
*985 FILLER_105_113
*986 FILLER_105_125
*987 FILLER_105_137
*988 FILLER_105_149
*989 FILLER_105_15
*990 FILLER_105_161
*991 FILLER_105_167
*992 FILLER_105_169
*993 FILLER_105_181
*994 FILLER_105_193
*995 FILLER_105_205
*996 FILLER_105_217
*997 FILLER_105_223
*998 FILLER_105_225
*999 FILLER_105_237
*1000 FILLER_105_249
*1001 FILLER_105_261
*1002 FILLER_105_27
*1003 FILLER_105_273
*1004 FILLER_105_279
*1005 FILLER_105_281
*1006 FILLER_105_293
*1007 FILLER_105_3
*1008 FILLER_105_305
*1009 FILLER_105_317
*1010 FILLER_105_329
*1011 FILLER_105_335
*1012 FILLER_105_337
*1013 FILLER_105_349
*1014 FILLER_105_361
*1015 FILLER_105_373
*1016 FILLER_105_385
*1017 FILLER_105_39
*1018 FILLER_105_391
*1019 FILLER_105_393
*1020 FILLER_105_405
*1021 FILLER_105_417
*1022 FILLER_105_429
*1023 FILLER_105_441
*1024 FILLER_105_447
*1025 FILLER_105_449
*1026 FILLER_105_461
*1027 FILLER_105_473
*1028 FILLER_105_485
*1029 FILLER_105_497
*1030 FILLER_105_503
*1031 FILLER_105_505
*1032 FILLER_105_51
*1033 FILLER_105_517
*1034 FILLER_105_529
*1035 FILLER_105_541
*1036 FILLER_105_55
*1037 FILLER_105_553
*1038 FILLER_105_559
*1039 FILLER_105_561
*1040 FILLER_105_573
*1041 FILLER_105_585
*1042 FILLER_105_597
*1043 FILLER_105_60
*1044 FILLER_105_609
*1045 FILLER_105_615
*1046 FILLER_105_617
*1047 FILLER_105_629
*1048 FILLER_105_641
*1049 FILLER_105_653
*1050 FILLER_105_665
*1051 FILLER_105_671
*1052 FILLER_105_673
*1053 FILLER_105_700
*1054 FILLER_105_712
*1055 FILLER_105_72
*1056 FILLER_105_724
*1057 FILLER_105_729
*1058 FILLER_105_84
*1059 FILLER_105_96
*1060 FILLER_106_109
*1061 FILLER_106_121
*1062 FILLER_106_133
*1063 FILLER_106_139
*1064 FILLER_106_141
*1065 FILLER_106_15
*1066 FILLER_106_153
*1067 FILLER_106_165
*1068 FILLER_106_177
*1069 FILLER_106_189
*1070 FILLER_106_195
*1071 FILLER_106_197
*1072 FILLER_106_209
*1073 FILLER_106_221
*1074 FILLER_106_233
*1075 FILLER_106_245
*1076 FILLER_106_251
*1077 FILLER_106_253
*1078 FILLER_106_265
*1079 FILLER_106_27
*1080 FILLER_106_277
*1081 FILLER_106_289
*1082 FILLER_106_29
*1083 FILLER_106_3
*1084 FILLER_106_301
*1085 FILLER_106_307
*1086 FILLER_106_309
*1087 FILLER_106_321
*1088 FILLER_106_333
*1089 FILLER_106_345
*1090 FILLER_106_357
*1091 FILLER_106_363
*1092 FILLER_106_365
*1093 FILLER_106_377
*1094 FILLER_106_389
*1095 FILLER_106_401
*1096 FILLER_106_41
*1097 FILLER_106_413
*1098 FILLER_106_419
*1099 FILLER_106_421
*1100 FILLER_106_433
*1101 FILLER_106_445
*1102 FILLER_106_457
*1103 FILLER_106_469
*1104 FILLER_106_475
*1105 FILLER_106_477
*1106 FILLER_106_489
*1107 FILLER_106_501
*1108 FILLER_106_513
*1109 FILLER_106_525
*1110 FILLER_106_53
*1111 FILLER_106_531
*1112 FILLER_106_533
*1113 FILLER_106_545
*1114 FILLER_106_557
*1115 FILLER_106_569
*1116 FILLER_106_581
*1117 FILLER_106_587
*1118 FILLER_106_589
*1119 FILLER_106_601
*1120 FILLER_106_613
*1121 FILLER_106_625
*1122 FILLER_106_637
*1123 FILLER_106_643
*1124 FILLER_106_645
*1125 FILLER_106_65
*1126 FILLER_106_657
*1127 FILLER_106_669
*1128 FILLER_106_677
*1129 FILLER_106_682
*1130 FILLER_106_694
*1131 FILLER_106_701
*1132 FILLER_106_713
*1133 FILLER_106_72
*1134 FILLER_106_725
*1135 FILLER_106_85
*1136 FILLER_106_97
*1137 FILLER_107_111
*1138 FILLER_107_113
*1139 FILLER_107_125
*1140 FILLER_107_13
*1141 FILLER_107_137
*1142 FILLER_107_149
*1143 FILLER_107_161
*1144 FILLER_107_167
*1145 FILLER_107_169
*1146 FILLER_107_181
*1147 FILLER_107_193
*1148 FILLER_107_205
*1149 FILLER_107_217
*1150 FILLER_107_223
*1151 FILLER_107_225
*1152 FILLER_107_237
*1153 FILLER_107_249
*1154 FILLER_107_25
*1155 FILLER_107_261
*1156 FILLER_107_273
*1157 FILLER_107_279
*1158 FILLER_107_281
*1159 FILLER_107_293
*1160 FILLER_107_305
*1161 FILLER_107_317
*1162 FILLER_107_329
*1163 FILLER_107_335
*1164 FILLER_107_337
*1165 FILLER_107_349
*1166 FILLER_107_361
*1167 FILLER_107_37
*1168 FILLER_107_373
*1169 FILLER_107_385
*1170 FILLER_107_391
*1171 FILLER_107_393
*1172 FILLER_107_405
*1173 FILLER_107_417
*1174 FILLER_107_429
*1175 FILLER_107_441
*1176 FILLER_107_447
*1177 FILLER_107_449
*1178 FILLER_107_461
*1179 FILLER_107_473
*1180 FILLER_107_485
*1181 FILLER_107_49
*1182 FILLER_107_497
*1183 FILLER_107_503
*1184 FILLER_107_505
*1185 FILLER_107_517
*1186 FILLER_107_529
*1187 FILLER_107_541
*1188 FILLER_107_55
*1189 FILLER_107_553
*1190 FILLER_107_559
*1191 FILLER_107_561
*1192 FILLER_107_57
*1193 FILLER_107_573
*1194 FILLER_107_585
*1195 FILLER_107_597
*1196 FILLER_107_609
*1197 FILLER_107_615
*1198 FILLER_107_617
*1199 FILLER_107_629
*1200 FILLER_107_641
*1201 FILLER_107_65
*1202 FILLER_107_653
*1203 FILLER_107_665
*1204 FILLER_107_671
*1205 FILLER_107_673
*1206 FILLER_107_685
*1207 FILLER_107_697
*1208 FILLER_107_709
*1209 FILLER_107_721
*1210 FILLER_107_727
*1211 FILLER_107_729
*1212 FILLER_107_87
*1213 FILLER_107_99
*1214 FILLER_108_109
*1215 FILLER_108_121
*1216 FILLER_108_133
*1217 FILLER_108_139
*1218 FILLER_108_141
*1219 FILLER_108_15
*1220 FILLER_108_153
*1221 FILLER_108_165
*1222 FILLER_108_177
*1223 FILLER_108_189
*1224 FILLER_108_195
*1225 FILLER_108_197
*1226 FILLER_108_209
*1227 FILLER_108_221
*1228 FILLER_108_233
*1229 FILLER_108_245
*1230 FILLER_108_251
*1231 FILLER_108_253
*1232 FILLER_108_265
*1233 FILLER_108_27
*1234 FILLER_108_277
*1235 FILLER_108_289
*1236 FILLER_108_29
*1237 FILLER_108_3
*1238 FILLER_108_301
*1239 FILLER_108_307
*1240 FILLER_108_309
*1241 FILLER_108_321
*1242 FILLER_108_333
*1243 FILLER_108_345
*1244 FILLER_108_357
*1245 FILLER_108_363
*1246 FILLER_108_365
*1247 FILLER_108_377
*1248 FILLER_108_389
*1249 FILLER_108_401
*1250 FILLER_108_41
*1251 FILLER_108_413
*1252 FILLER_108_419
*1253 FILLER_108_421
*1254 FILLER_108_433
*1255 FILLER_108_445
*1256 FILLER_108_457
*1257 FILLER_108_469
*1258 FILLER_108_475
*1259 FILLER_108_477
*1260 FILLER_108_489
*1261 FILLER_108_501
*1262 FILLER_108_513
*1263 FILLER_108_525
*1264 FILLER_108_53
*1265 FILLER_108_531
*1266 FILLER_108_533
*1267 FILLER_108_545
*1268 FILLER_108_557
*1269 FILLER_108_569
*1270 FILLER_108_581
*1271 FILLER_108_587
*1272 FILLER_108_589
*1273 FILLER_108_601
*1274 FILLER_108_613
*1275 FILLER_108_625
*1276 FILLER_108_634
*1277 FILLER_108_642
*1278 FILLER_108_645
*1279 FILLER_108_65
*1280 FILLER_108_657
*1281 FILLER_108_669
*1282 FILLER_108_681
*1283 FILLER_108_693
*1284 FILLER_108_699
*1285 FILLER_108_70
*1286 FILLER_108_701
*1287 FILLER_108_713
*1288 FILLER_108_725
*1289 FILLER_108_82
*1290 FILLER_108_85
*1291 FILLER_108_97
*1292 FILLER_109_105
*1293 FILLER_109_111
*1294 FILLER_109_113
*1295 FILLER_109_125
*1296 FILLER_109_137
*1297 FILLER_109_149
*1298 FILLER_109_15
*1299 FILLER_109_161
*1300 FILLER_109_167
*1301 FILLER_109_169
*1302 FILLER_109_181
*1303 FILLER_109_193
*1304 FILLER_109_205
*1305 FILLER_109_217
*1306 FILLER_109_223
*1307 FILLER_109_225
*1308 FILLER_109_237
*1309 FILLER_109_249
*1310 FILLER_109_261
*1311 FILLER_109_27
*1312 FILLER_109_273
*1313 FILLER_109_279
*1314 FILLER_109_281
*1315 FILLER_109_293
*1316 FILLER_109_3
*1317 FILLER_109_305
*1318 FILLER_109_317
*1319 FILLER_109_329
*1320 FILLER_109_335
*1321 FILLER_109_337
*1322 FILLER_109_349
*1323 FILLER_109_361
*1324 FILLER_109_373
*1325 FILLER_109_385
*1326 FILLER_109_39
*1327 FILLER_109_391
*1328 FILLER_109_393
*1329 FILLER_109_405
*1330 FILLER_109_417
*1331 FILLER_109_429
*1332 FILLER_109_441
*1333 FILLER_109_447
*1334 FILLER_109_449
*1335 FILLER_109_461
*1336 FILLER_109_473
*1337 FILLER_109_485
*1338 FILLER_109_497
*1339 FILLER_109_503
*1340 FILLER_109_505
*1341 FILLER_109_51
*1342 FILLER_109_517
*1343 FILLER_109_529
*1344 FILLER_109_541
*1345 FILLER_109_55
*1346 FILLER_109_553
*1347 FILLER_109_559
*1348 FILLER_109_561
*1349 FILLER_109_57
*1350 FILLER_109_573
*1351 FILLER_109_585
*1352 FILLER_109_597
*1353 FILLER_109_609
*1354 FILLER_109_615
*1355 FILLER_109_617
*1356 FILLER_109_629
*1357 FILLER_109_653
*1358 FILLER_109_665
*1359 FILLER_109_671
*1360 FILLER_109_673
*1361 FILLER_109_685
*1362 FILLER_109_69
*1363 FILLER_109_697
*1364 FILLER_109_709
*1365 FILLER_109_721
*1366 FILLER_109_727
*1367 FILLER_109_729
*1368 FILLER_109_81
*1369 FILLER_109_93
*1370 FILLER_10_109
*1371 FILLER_10_121
*1372 FILLER_10_133
*1373 FILLER_10_139
*1374 FILLER_10_141
*1375 FILLER_10_15
*1376 FILLER_10_153
*1377 FILLER_10_165
*1378 FILLER_10_177
*1379 FILLER_10_189
*1380 FILLER_10_195
*1381 FILLER_10_197
*1382 FILLER_10_209
*1383 FILLER_10_221
*1384 FILLER_10_233
*1385 FILLER_10_245
*1386 FILLER_10_251
*1387 FILLER_10_253
*1388 FILLER_10_265
*1389 FILLER_10_27
*1390 FILLER_10_277
*1391 FILLER_10_289
*1392 FILLER_10_29
*1393 FILLER_10_297
*1394 FILLER_10_3
*1395 FILLER_10_301
*1396 FILLER_10_307
*1397 FILLER_10_309
*1398 FILLER_10_321
*1399 FILLER_10_333
*1400 FILLER_10_345
*1401 FILLER_10_357
*1402 FILLER_10_363
*1403 FILLER_10_365
*1404 FILLER_10_377
*1405 FILLER_10_389
*1406 FILLER_10_401
*1407 FILLER_10_41
*1408 FILLER_10_413
*1409 FILLER_10_419
*1410 FILLER_10_421
*1411 FILLER_10_429
*1412 FILLER_10_451
*1413 FILLER_10_463
*1414 FILLER_10_475
*1415 FILLER_10_477
*1416 FILLER_10_485
*1417 FILLER_10_489
*1418 FILLER_10_514
*1419 FILLER_10_526
*1420 FILLER_10_53
*1421 FILLER_10_533
*1422 FILLER_10_545
*1423 FILLER_10_557
*1424 FILLER_10_569
*1425 FILLER_10_581
*1426 FILLER_10_587
*1427 FILLER_10_589
*1428 FILLER_10_601
*1429 FILLER_10_613
*1430 FILLER_10_625
*1431 FILLER_10_637
*1432 FILLER_10_643
*1433 FILLER_10_645
*1434 FILLER_10_65
*1435 FILLER_10_657
*1436 FILLER_10_665
*1437 FILLER_10_671
*1438 FILLER_10_696
*1439 FILLER_10_701
*1440 FILLER_10_713
*1441 FILLER_10_721
*1442 FILLER_10_729
*1443 FILLER_10_77
*1444 FILLER_10_83
*1445 FILLER_10_85
*1446 FILLER_10_97
*1447 FILLER_110_105
*1448 FILLER_110_110
*1449 FILLER_110_122
*1450 FILLER_110_134
*1451 FILLER_110_141
*1452 FILLER_110_15
*1453 FILLER_110_153
*1454 FILLER_110_165
*1455 FILLER_110_177
*1456 FILLER_110_189
*1457 FILLER_110_195
*1458 FILLER_110_197
*1459 FILLER_110_209
*1460 FILLER_110_221
*1461 FILLER_110_233
*1462 FILLER_110_245
*1463 FILLER_110_251
*1464 FILLER_110_253
*1465 FILLER_110_265
*1466 FILLER_110_27
*1467 FILLER_110_277
*1468 FILLER_110_289
*1469 FILLER_110_29
*1470 FILLER_110_3
*1471 FILLER_110_301
*1472 FILLER_110_307
*1473 FILLER_110_309
*1474 FILLER_110_321
*1475 FILLER_110_333
*1476 FILLER_110_345
*1477 FILLER_110_357
*1478 FILLER_110_363
*1479 FILLER_110_365
*1480 FILLER_110_377
*1481 FILLER_110_389
*1482 FILLER_110_401
*1483 FILLER_110_41
*1484 FILLER_110_413
*1485 FILLER_110_419
*1486 FILLER_110_421
*1487 FILLER_110_433
*1488 FILLER_110_445
*1489 FILLER_110_457
*1490 FILLER_110_469
*1491 FILLER_110_475
*1492 FILLER_110_477
*1493 FILLER_110_489
*1494 FILLER_110_501
*1495 FILLER_110_513
*1496 FILLER_110_525
*1497 FILLER_110_53
*1498 FILLER_110_531
*1499 FILLER_110_533
*1500 FILLER_110_545
*1501 FILLER_110_557
*1502 FILLER_110_569
*1503 FILLER_110_581
*1504 FILLER_110_587
*1505 FILLER_110_589
*1506 FILLER_110_601
*1507 FILLER_110_613
*1508 FILLER_110_625
*1509 FILLER_110_636
*1510 FILLER_110_645
*1511 FILLER_110_65
*1512 FILLER_110_657
*1513 FILLER_110_669
*1514 FILLER_110_681
*1515 FILLER_110_693
*1516 FILLER_110_699
*1517 FILLER_110_701
*1518 FILLER_110_713
*1519 FILLER_110_725
*1520 FILLER_110_77
*1521 FILLER_110_83
*1522 FILLER_110_85
*1523 FILLER_110_97
*1524 FILLER_111_101
*1525 FILLER_111_108
*1526 FILLER_111_134
*1527 FILLER_111_146
*1528 FILLER_111_15
*1529 FILLER_111_158
*1530 FILLER_111_166
*1531 FILLER_111_169
*1532 FILLER_111_181
*1533 FILLER_111_193
*1534 FILLER_111_205
*1535 FILLER_111_217
*1536 FILLER_111_223
*1537 FILLER_111_225
*1538 FILLER_111_237
*1539 FILLER_111_249
*1540 FILLER_111_261
*1541 FILLER_111_27
*1542 FILLER_111_273
*1543 FILLER_111_279
*1544 FILLER_111_281
*1545 FILLER_111_293
*1546 FILLER_111_297
*1547 FILLER_111_3
*1548 FILLER_111_322
*1549 FILLER_111_334
*1550 FILLER_111_337
*1551 FILLER_111_349
*1552 FILLER_111_361
*1553 FILLER_111_373
*1554 FILLER_111_385
*1555 FILLER_111_39
*1556 FILLER_111_391
*1557 FILLER_111_393
*1558 FILLER_111_405
*1559 FILLER_111_417
*1560 FILLER_111_429
*1561 FILLER_111_441
*1562 FILLER_111_447
*1563 FILLER_111_449
*1564 FILLER_111_461
*1565 FILLER_111_473
*1566 FILLER_111_485
*1567 FILLER_111_497
*1568 FILLER_111_503
*1569 FILLER_111_505
*1570 FILLER_111_51
*1571 FILLER_111_517
*1572 FILLER_111_529
*1573 FILLER_111_541
*1574 FILLER_111_55
*1575 FILLER_111_553
*1576 FILLER_111_559
*1577 FILLER_111_561
*1578 FILLER_111_57
*1579 FILLER_111_573
*1580 FILLER_111_585
*1581 FILLER_111_597
*1582 FILLER_111_609
*1583 FILLER_111_615
*1584 FILLER_111_617
*1585 FILLER_111_629
*1586 FILLER_111_641
*1587 FILLER_111_653
*1588 FILLER_111_657
*1589 FILLER_111_669
*1590 FILLER_111_673
*1591 FILLER_111_685
*1592 FILLER_111_69
*1593 FILLER_111_697
*1594 FILLER_111_709
*1595 FILLER_111_721
*1596 FILLER_111_727
*1597 FILLER_111_729
*1598 FILLER_111_81
*1599 FILLER_111_85
*1600 FILLER_111_89
*1601 FILLER_112_106
*1602 FILLER_112_11
*1603 FILLER_112_118
*1604 FILLER_112_130
*1605 FILLER_112_138
*1606 FILLER_112_141
*1607 FILLER_112_153
*1608 FILLER_112_165
*1609 FILLER_112_177
*1610 FILLER_112_189
*1611 FILLER_112_195
*1612 FILLER_112_197
*1613 FILLER_112_209
*1614 FILLER_112_221
*1615 FILLER_112_23
*1616 FILLER_112_233
*1617 FILLER_112_245
*1618 FILLER_112_251
*1619 FILLER_112_253
*1620 FILLER_112_265
*1621 FILLER_112_27
*1622 FILLER_112_277
*1623 FILLER_112_289
*1624 FILLER_112_29
*1625 FILLER_112_293
*1626 FILLER_112_297
*1627 FILLER_112_3
*1628 FILLER_112_305
*1629 FILLER_112_312
*1630 FILLER_112_324
*1631 FILLER_112_336
*1632 FILLER_112_348
*1633 FILLER_112_360
*1634 FILLER_112_365
*1635 FILLER_112_377
*1636 FILLER_112_389
*1637 FILLER_112_401
*1638 FILLER_112_41
*1639 FILLER_112_413
*1640 FILLER_112_419
*1641 FILLER_112_421