*SPEF "ieee 1481-1999"
*DESIGN "wrapped_etpu"
*DATE "11:11:11 Fri 11 11, 1111"
*VENDOR "OpenRCX"
*PROGRAM "Parallel Extraction"
*VERSION "1.0"
*DESIGN_FLOW "NAME_SCOPE LOCAL" "PIN_CAP NONE"
*DIVIDER /
*DELIMITER :
*BUS_DELIMITER []
*T_UNIT 1 NS
*C_UNIT 1 PF
*R_UNIT 1 OHM
*L_UNIT 1 HENRY

*NAME_MAP
*1 active
*2 io_in[0]
*3 io_in[10]
*4 io_in[11]
*5 io_in[12]
*6 io_in[13]
*7 io_in[14]
*8 io_in[15]
*9 io_in[16]
*10 io_in[17]
*11 io_in[18]
*12 io_in[19]
*13 io_in[1]
*14 io_in[20]
*15 io_in[21]
*16 io_in[22]
*17 io_in[23]
*18 io_in[24]
*19 io_in[25]
*20 io_in[26]
*21 io_in[27]
*22 io_in[28]
*23 io_in[29]
*24 io_in[2]
*25 io_in[30]
*26 io_in[31]
*27 io_in[32]
*28 io_in[33]
*29 io_in[34]
*30 io_in[35]
*31 io_in[36]
*32 io_in[37]
*33 io_in[3]
*34 io_in[4]
*35 io_in[5]
*36 io_in[6]
*37 io_in[7]
*38 io_in[8]
*39 io_in[9]
*40 io_oeb[0]
*41 io_oeb[10]
*42 io_oeb[11]
*43 io_oeb[12]
*44 io_oeb[13]
*45 io_oeb[14]
*46 io_oeb[15]
*47 io_oeb[16]
*48 io_oeb[17]
*49 io_oeb[18]
*50 io_oeb[19]
*51 io_oeb[1]
*52 io_oeb[20]
*53 io_oeb[21]
*54 io_oeb[22]
*55 io_oeb[23]
*56 io_oeb[24]
*57 io_oeb[25]
*58 io_oeb[26]
*59 io_oeb[27]
*60 io_oeb[28]
*61 io_oeb[29]
*62 io_oeb[2]
*63 io_oeb[30]
*64 io_oeb[31]
*65 io_oeb[32]
*66 io_oeb[33]
*67 io_oeb[34]
*68 io_oeb[35]
*69 io_oeb[36]
*70 io_oeb[37]
*71 io_oeb[3]
*72 io_oeb[4]
*73 io_oeb[5]
*74 io_oeb[6]
*75 io_oeb[7]
*76 io_oeb[8]
*77 io_oeb[9]
*78 io_out[0]
*79 io_out[10]
*80 io_out[11]
*81 io_out[12]
*82 io_out[13]
*83 io_out[14]
*84 io_out[15]
*85 io_out[16]
*86 io_out[17]
*87 io_out[18]
*88 io_out[19]
*89 io_out[1]
*90 io_out[20]
*91 io_out[21]
*92 io_out[22]
*93 io_out[23]
*94 io_out[24]
*95 io_out[25]
*96 io_out[26]
*97 io_out[27]
*98 io_out[28]
*99 io_out[29]
*100 io_out[2]
*101 io_out[30]
*102 io_out[31]
*103 io_out[32]
*104 io_out[33]
*105 io_out[34]
*106 io_out[35]
*107 io_out[36]
*108 io_out[37]
*109 io_out[3]
*110 io_out[4]
*111 io_out[5]
*112 io_out[6]
*113 io_out[7]
*114 io_out[8]
*115 io_out[9]
*118 wb_clk_i
*119 wb_rst_i
*120 wbs_ack_o
*121 wbs_adr_i[0]
*122 wbs_adr_i[10]
*123 wbs_adr_i[11]
*124 wbs_adr_i[12]
*125 wbs_adr_i[13]
*126 wbs_adr_i[14]
*127 wbs_adr_i[15]
*128 wbs_adr_i[16]
*129 wbs_adr_i[17]
*130 wbs_adr_i[18]
*131 wbs_adr_i[19]
*132 wbs_adr_i[1]
*133 wbs_adr_i[20]
*134 wbs_adr_i[21]
*135 wbs_adr_i[22]
*136 wbs_adr_i[23]
*137 wbs_adr_i[24]
*138 wbs_adr_i[25]
*139 wbs_adr_i[26]
*140 wbs_adr_i[27]
*141 wbs_adr_i[28]
*142 wbs_adr_i[29]
*143 wbs_adr_i[2]
*144 wbs_adr_i[30]
*145 wbs_adr_i[31]
*146 wbs_adr_i[3]
*147 wbs_adr_i[4]
*148 wbs_adr_i[5]
*149 wbs_adr_i[6]
*150 wbs_adr_i[7]
*151 wbs_adr_i[8]
*152 wbs_adr_i[9]
*153 wbs_cyc_i
*154 wbs_dat_i[0]
*155 wbs_dat_i[10]
*156 wbs_dat_i[11]
*157 wbs_dat_i[12]
*158 wbs_dat_i[13]
*159 wbs_dat_i[14]
*160 wbs_dat_i[15]
*161 wbs_dat_i[16]
*162 wbs_dat_i[17]
*163 wbs_dat_i[18]
*164 wbs_dat_i[19]
*165 wbs_dat_i[1]
*166 wbs_dat_i[20]
*167 wbs_dat_i[21]
*168 wbs_dat_i[22]
*169 wbs_dat_i[23]
*170 wbs_dat_i[24]
*171 wbs_dat_i[25]
*172 wbs_dat_i[26]
*173 wbs_dat_i[27]
*174 wbs_dat_i[28]
*175 wbs_dat_i[29]
*176 wbs_dat_i[2]
*177 wbs_dat_i[30]
*178 wbs_dat_i[31]
*179 wbs_dat_i[3]
*180 wbs_dat_i[4]
*181 wbs_dat_i[5]
*182 wbs_dat_i[6]
*183 wbs_dat_i[7]
*184 wbs_dat_i[8]
*185 wbs_dat_i[9]
*186 wbs_dat_o[0]
*187 wbs_dat_o[10]
*188 wbs_dat_o[11]
*189 wbs_dat_o[12]
*190 wbs_dat_o[13]
*191 wbs_dat_o[14]
*192 wbs_dat_o[15]
*193 wbs_dat_o[16]
*194 wbs_dat_o[17]
*195 wbs_dat_o[18]
*196 wbs_dat_o[19]
*197 wbs_dat_o[1]
*198 wbs_dat_o[20]
*199 wbs_dat_o[21]
*200 wbs_dat_o[22]
*201 wbs_dat_o[23]
*202 wbs_dat_o[24]
*203 wbs_dat_o[25]
*204 wbs_dat_o[26]
*205 wbs_dat_o[27]
*206 wbs_dat_o[28]
*207 wbs_dat_o[29]
*208 wbs_dat_o[2]
*209 wbs_dat_o[30]
*210 wbs_dat_o[31]
*211 wbs_dat_o[3]
*212 wbs_dat_o[4]
*213 wbs_dat_o[5]
*214 wbs_dat_o[6]
*215 wbs_dat_o[7]
*216 wbs_dat_o[8]
*217 wbs_dat_o[9]
*218 wbs_sel_i[0]
*219 wbs_sel_i[1]
*220 wbs_sel_i[2]
*221 wbs_sel_i[3]
*222 wbs_stb_i
*223 wbs_we_i
*224 _0000_
*225 _0001_
*226 _0002_
*227 _0003_
*228 _0004_
*229 _0005_
*230 _0006_
*231 _0007_
*232 _0008_
*233 _0009_
*234 _0010_
*235 _0011_
*236 _0012_
*237 _0013_
*238 _0014_
*239 _0015_
*240 _0016_
*241 _0017_
*242 _0018_
*243 _0019_
*244 _0020_
*245 _0021_
*246 _0022_
*247 _0023_
*248 _0024_
*249 _0025_
*250 _0026_
*251 _0027_
*252 _0028_
*253 _0029_
*254 _0030_
*255 _0031_
*256 _0032_
*257 _0033_
*258 _0034_
*259 _0035_
*260 _0036_
*261 _0037_
*262 _0038_
*263 _0039_
*264 _0040_
*265 _0041_
*266 _0042_
*267 _0043_
*268 _0044_
*269 _0045_
*270 _0046_
*271 _0047_
*272 _0048_
*273 _0049_
*274 _0050_
*275 _0051_
*276 _0052_
*277 _0053_
*278 _0054_
*279 _0055_
*280 _0056_
*281 _0057_
*282 _0058_
*283 _0059_
*284 _0060_
*285 _0061_
*286 _0062_
*287 _0063_
*288 _0064_
*289 _0065_
*290 _0066_
*291 _0067_
*292 _0068_
*293 _0069_
*294 _0070_
*295 _0071_
*296 _0072_
*297 _0073_
*298 _0074_
*299 _0075_
*300 _0076_
*301 _0077_
*302 _0078_
*303 _0079_
*304 _0080_
*305 _0081_
*306 _0082_
*307 _0083_
*308 _0084_
*309 _0085_
*310 _0086_
*311 _0087_
*312 _0088_
*313 _0089_
*314 _0090_
*315 _0091_
*316 _0092_
*317 _0093_
*318 _0094_
*319 _0095_
*320 _0096_
*321 _0097_
*322 _0098_
*323 _0099_
*324 _0100_
*325 _0101_
*326 _0102_
*327 _0103_
*328 _0104_
*329 _0105_
*330 _0106_
*331 _0107_
*332 _0108_
*333 _0109_
*334 _0110_
*335 _0111_
*336 _0112_
*337 _0113_
*338 _0114_
*339 _0115_
*340 _0116_
*341 _0117_
*342 _0118_
*343 _0119_
*344 _0120_
*345 _0121_
*346 _0122_
*347 _0123_
*348 _0124_
*349 _0125_
*350 _0126_
*351 _0127_
*352 _0128_
*353 _0129_
*354 _0130_
*355 _0131_
*356 _0132_
*357 _0133_
*358 _0134_
*359 _0135_
*360 _0136_
*361 _0137_
*362 _0138_
*363 _0139_
*364 _0140_
*365 _0141_
*366 _0142_
*367 _0143_
*368 _0144_
*369 _0145_
*370 _0146_
*371 _0147_
*372 _0148_
*373 _0149_
*374 _0150_
*375 _0151_
*376 _0152_
*377 _0153_
*378 _0154_
*379 _0155_
*380 _0156_
*381 _0157_
*382 _0158_
*383 _0159_
*384 _0160_
*385 _0161_
*386 _0162_
*387 _0163_
*388 _0164_
*389 _0165_
*390 _0166_
*391 _0167_
*392 _0168_
*393 _0169_
*394 _0170_
*395 _0171_
*396 _0172_
*397 _0173_
*398 _0174_
*399 _0175_
*400 _0176_
*401 _0177_
*402 _0178_
*403 _0179_
*404 _0180_
*405 _0181_
*406 _0182_
*407 _0183_
*408 _0184_
*409 _0185_
*410 _0186_
*411 _0187_
*412 _0188_
*413 _0189_
*414 _0190_
*415 _0191_
*416 _0192_
*417 _0193_
*418 _0194_
*419 _0195_
*420 _0196_
*421 _0197_
*422 _0198_
*423 _0199_
*424 _0200_
*425 _0201_
*426 _0202_
*427 _0203_
*428 _0204_
*429 _0205_
*430 _0206_
*431 _0207_
*432 _0208_
*433 _0209_
*434 _0210_
*435 _0211_
*436 _0212_
*437 _0213_
*438 _0214_
*439 _0215_
*440 _0216_
*441 _0217_
*442 _0218_
*443 _0219_
*444 _0220_
*445 _0221_
*446 _0222_
*447 _0223_
*448 _0224_
*449 _0225_
*450 _0226_
*451 _0227_
*452 _0228_
*453 _0229_
*454 _0230_
*455 _0231_
*456 _0232_
*457 _0233_
*458 _0234_
*459 _0235_
*460 _0236_
*461 _0237_
*462 _0238_
*463 _0239_
*464 _0240_
*465 _0241_
*466 _0242_
*467 _0243_
*468 _0244_
*469 _0245_
*470 _0246_
*471 _0247_
*472 _0248_
*473 _0249_
*474 _0250_
*475 _0251_
*476 _0252_
*477 _0253_
*478 _0254_
*479 _0255_
*480 _0256_
*481 _0257_
*482 _0258_
*483 _0259_
*484 _0260_
*485 _0261_
*486 _0262_
*487 _0263_
*488 _0264_
*489 _0265_
*490 _0266_
*491 _0267_
*492 _0268_
*493 _0269_
*494 _0270_
*495 _0271_
*496 _0272_
*497 _0273_
*498 _0274_
*499 _0275_
*500 _0276_
*501 _0277_
*502 _0278_
*503 _0279_
*504 _0280_
*505 _0281_
*506 _0282_
*507 _0283_
*508 _0284_
*509 _0285_
*510 _0286_
*511 _0287_
*512 _0288_
*513 _0289_
*514 _0290_
*515 _0291_
*516 _0292_
*517 _0293_
*518 _0294_
*519 _0295_
*520 _0296_
*521 _0297_
*522 _0298_
*523 _0299_
*524 _0300_
*525 _0301_
*526 _0302_
*527 _0303_
*528 _0304_
*529 _0305_
*530 _0306_
*531 _0307_
*532 _0308_
*533 _0309_
*534 _0310_
*535 _0311_
*536 _0312_
*537 _0313_
*538 _0314_
*539 _0315_
*540 _0316_
*541 _0317_
*542 _0318_
*543 _0319_
*544 _0320_
*545 _0321_
*546 _0322_
*547 _0323_
*548 _0324_
*549 _0325_
*550 _0326_
*551 _0327_
*552 _0328_
*553 _0329_
*554 _0330_
*555 _0331_
*556 _0332_
*557 _0333_
*558 _0334_
*559 _0335_
*560 _0336_
*561 _0337_
*562 _0338_
*563 _0339_
*564 _0340_
*565 _0341_
*566 _0342_
*567 _0343_
*568 _0344_
*569 _0345_
*570 _0346_
*571 _0347_
*572 _0348_
*573 _0349_
*574 _0350_
*575 _0351_
*576 _0352_
*577 _0353_
*578 _0354_
*579 _0355_
*580 _0356_
*581 _0357_
*582 _0358_
*583 _0359_
*584 _0360_
*585 _0361_
*586 _0362_
*587 _0363_
*588 _0364_
*589 _0365_
*590 _0366_
*591 _0367_
*592 _0368_
*593 _0369_
*594 _0370_
*595 _0371_
*596 _0372_
*597 _0373_
*598 _0374_
*599 _0375_
*600 _0376_
*601 _0377_
*602 _0378_
*603 _0379_
*604 _0380_
*605 _0381_
*606 _0382_
*607 _0383_
*608 _0384_
*609 _0385_
*610 _0386_
*611 _0387_
*612 _0388_
*613 _0389_
*614 _0390_
*615 _0391_
*616 _0392_
*617 _0393_
*618 _0394_
*619 _0395_
*620 _0396_
*621 _0397_
*622 _0398_
*623 _0399_
*624 _0400_
*625 _0401_
*626 _0402_
*627 _0403_
*628 _0404_
*629 _0405_
*630 _0406_
*631 _0407_
*632 _0408_
*633 _0409_
*634 _0410_
*635 _0411_
*636 _0412_
*637 _0413_
*638 _0414_
*639 _0415_
*640 _0416_
*641 _0417_
*642 _0418_
*643 _0419_
*644 _0420_
*645 _0421_
*646 _0422_
*647 _0423_
*648 _0424_
*649 _0425_
*650 _0426_
*651 _0427_
*652 _0428_
*653 _0429_
*654 _0430_
*655 _0431_
*656 _0432_
*657 _0433_
*658 _0434_
*659 _0435_
*660 _0436_
*661 _0437_
*662 _0438_
*663 _0439_
*664 _0440_
*665 _0441_
*666 _0442_
*667 _0443_
*668 _0444_
*669 _0445_
*670 _0446_
*671 _0447_
*672 _0448_
*673 _0449_
*674 _0450_
*675 _0451_
*676 _0452_
*677 _0453_
*678 _0454_
*679 _0455_
*680 _0456_
*681 _0457_
*682 _0458_
*683 _0459_
*684 _0460_
*685 _0461_
*686 _0462_
*687 _0463_
*688 _0464_
*689 _0465_
*690 _0466_
*691 _0467_
*692 _0468_
*693 _0469_
*694 _0470_
*695 _0471_
*696 _0472_
*697 _0473_
*698 _0474_
*699 _0475_
*700 _0476_
*701 _0477_
*702 _0478_
*703 _0479_
*704 _0480_
*705 _0481_
*706 _0482_
*707 _0483_
*708 _0484_
*709 _0485_
*710 _0486_
*711 _0487_
*712 _0488_
*713 _0489_
*714 _0490_
*715 _0491_
*716 _0492_
*717 _0493_
*718 _0494_
*719 _0495_
*720 _0496_
*721 _0497_
*722 _0498_
*723 _0499_
*724 _0500_
*725 _0501_
*726 _0502_
*727 _0503_
*728 _0504_
*729 _0505_
*730 _0506_
*731 _0507_
*732 _0508_
*733 _0509_
*734 _0510_
*735 _0511_
*736 _0512_
*737 _0513_
*738 _0514_
*739 _0515_
*740 _0516_
*741 _0517_
*742 _0518_
*743 _0519_
*744 _0520_
*745 _0521_
*746 _0522_
*747 _0523_
*748 _0524_
*749 _0525_
*750 _0526_
*751 _0527_
*752 _0528_
*753 _0529_
*754 _0530_
*755 _0531_
*756 _0532_
*757 _0533_
*758 _0534_
*759 _0535_
*760 _0536_
*761 _0537_
*762 _0538_
*763 _0539_
*764 _0540_
*765 _0541_
*766 _0542_
*767 _0543_
*768 _0544_
*769 _0545_
*770 _0546_
*771 _0547_
*772 _0548_
*773 _0549_
*774 _0550_
*775 _0551_
*776 _0552_
*777 _0553_
*778 _0554_
*779 _0555_
*780 _0556_
*781 _0557_
*782 _0558_
*783 _0559_
*784 _0560_
*785 _0561_
*786 _0562_
*787 _0563_
*788 _0564_
*789 _0565_
*790 _0566_
*791 _0567_
*792 _0568_
*793 _0569_
*794 _0570_
*795 _0571_
*796 _0572_
*797 _0573_
*798 _0574_
*799 _0575_
*800 _0576_
*801 _0577_
*802 _0578_
*803 _0579_
*804 _0580_
*805 _0581_
*806 _0582_
*807 _0583_
*808 _0584_
*809 _0585_
*810 _0586_
*811 _0587_
*812 _0588_
*813 _0589_
*814 _0590_
*815 _0591_
*816 _0592_
*817 _0593_
*818 _0594_
*819 _0595_
*820 _0596_
*821 _0597_
*822 _0598_
*823 _0599_
*824 _0600_
*825 _0601_
*826 _0602_
*827 _0603_
*828 _0604_
*829 _0605_
*830 _0606_
*831 _0607_
*832 _0608_
*833 _0609_
*834 _0610_
*835 _0611_
*836 _0612_
*837 _0613_
*838 _0614_
*839 _0615_
*840 _0616_
*841 _0617_
*842 _0618_
*843 _0619_
*844 _0620_
*845 _0621_
*846 _0622_
*847 _0623_
*848 _0624_
*849 _0625_
*850 _0626_
*851 _0627_
*852 _0628_
*853 _0629_
*854 _0630_
*855 _0631_
*856 _0632_
*857 _0633_
*858 _0634_
*859 _0635_
*860 _0636_
*861 _0637_
*862 _0638_
*863 _0639_
*864 _0640_
*865 _0641_
*866 _0642_
*867 _0643_
*868 _0644_
*869 _0645_
*870 _0646_
*871 _0647_
*872 _0648_
*873 _0649_
*874 _0650_
*875 _0651_
*876 _0652_
*877 _0653_
*878 _0654_
*879 _0655_
*880 _0656_
*881 _0657_
*882 _0658_
*883 _0659_
*884 _0660_
*885 _0661_
*886 _0662_
*887 _0663_
*888 _0664_
*889 _0665_
*890 _0666_
*891 _0667_
*892 _0668_
*893 _0669_
*894 _0670_
*895 _0671_
*896 _0672_
*897 _0673_
*898 _0674_
*899 _0675_
*900 _0676_
*901 _0677_
*902 _0678_
*903 _0679_
*904 _0680_
*905 _0681_
*906 _0682_
*907 _0683_
*908 _0684_
*909 _0685_
*910 _0686_
*911 _0687_
*912 _0688_
*913 _0689_
*914 _0690_
*915 _0691_
*916 _0692_
*917 _0693_
*918 _0694_
*919 _0695_
*920 _0696_
*921 _0697_
*922 _0698_
*923 _0699_
*924 _0700_
*925 _0701_
*926 _0702_
*927 _0703_
*928 _0704_
*929 _0705_
*930 _0706_
*931 _0707_
*932 _0708_
*933 _0709_
*934 _0710_
*935 _0711_
*936 _0712_
*937 _0713_
*938 _0714_
*939 _0715_
*940 _0716_
*941 _0717_
*942 _0718_
*943 _0719_
*944 _0720_
*945 _0721_
*946 _0722_
*947 _0723_
*948 _0724_
*949 _0725_
*950 _0726_
*951 _0727_
*952 _0728_
*953 _0729_
*954 _0730_
*955 _0731_
*956 _0732_
*957 _0733_
*958 _0734_
*959 _0735_
*960 _0736_
*961 _0737_
*962 _0738_
*963 _0739_
*964 _0740_
*965 _0741_
*966 _0742_
*967 _0743_
*968 _0744_
*969 _0745_
*970 _0746_
*971 _0747_
*972 _0748_
*973 _0749_
*974 _0750_
*975 _0751_
*976 _0752_
*977 _0753_
*978 _0754_
*979 _0755_
*980 _0756_
*981 _0757_
*982 _0758_
*983 _0759_
*984 _0760_
*985 _0761_
*986 _0762_
*987 _0763_
*988 _0764_
*989 _0765_
*990 _0766_
*991 _0767_
*992 _0768_
*993 _0769_
*994 _0770_
*995 _0771_
*996 _0772_
*997 _0773_
*998 _0774_
*999 _0775_
*1000 _0776_
*1001 _0777_
*1002 _0778_
*1003 _0779_
*1004 _0780_
*1005 _0781_
*1006 _0782_
*1007 _0783_
*1008 _0784_
*1009 _0785_
*1010 _0786_
*1011 _0787_
*1012 _0788_
*1013 _0789_
*1014 _0790_
*1015 _0791_
*1016 _0792_
*1017 _0793_
*1018 _0794_
*1019 _0795_
*1020 _0796_
*1021 _0797_
*1022 _0798_
*1023 _0799_
*1024 _0800_
*1025 _0801_
*1026 _0802_
*1027 _0803_
*1028 _0804_
*1029 _0805_
*1030 _0806_
*1031 _0807_
*1032 _0808_
*1033 _0809_
*1034 _0810_
*1035 _0811_
*1036 _0812_
*1037 _0813_
*1038 _0814_
*1039 _0815_
*1040 _0816_
*1041 _0817_
*1042 _0818_
*1043 _0819_
*1044 _0820_
*1045 _0821_
*1046 _0822_
*1047 _0823_
*1048 _0824_
*1049 _0825_
*1050 _0826_
*1051 _0827_
*1052 _0828_
*1053 _0829_
*1054 _0830_
*1055 _0831_
*1056 _0832_
*1057 _0833_
*1058 _0834_
*1059 _0835_
*1060 _0836_
*1061 _0837_
*1062 _0838_
*1063 _0839_
*1064 _0840_
*1065 _0841_
*1066 _0842_
*1067 _0843_
*1068 _0844_
*1069 _0845_
*1070 _0846_
*1071 _0847_
*1072 _0848_
*1073 _0849_
*1074 _0850_
*1075 _0851_
*1076 _0852_
*1077 _0853_
*1078 _0854_
*1079 _0855_
*1080 _0856_
*1081 _0857_
*1082 _0858_
*1083 _0859_
*1084 _0860_
*1085 _0861_
*1086 _0862_
*1087 _0863_
*1088 _0864_
*1089 _0865_
*1090 _0866_
*1091 _0867_
*1092 _0868_
*1093 _0869_
*1094 _0870_
*1095 _0871_
*1096 _0872_
*1097 _0873_
*1098 _0874_
*1099 _0875_
*1100 _0876_
*1101 _0877_
*1102 _0878_
*1103 _0879_
*1104 _0880_
*1105 _0881_
*1106 _0882_
*1107 _0883_
*1108 _0884_
*1109 _0885_
*1110 _0886_
*1111 _0887_
*1112 _0888_
*1113 _0889_
*1114 _0890_
*1115 _0891_
*1116 _0892_
*1117 _0893_
*1118 _0894_
*1119 _0895_
*1120 _0896_
*1121 _0897_
*1122 _0898_
*1123 _0899_
*1124 _0900_
*1125 _0901_
*1126 _0902_
*1127 _0903_
*1128 _0904_
*1129 _0905_
*1130 _0906_
*1131 _0907_
*1132 _0908_
*1133 _0909_
*1134 _0910_
*1135 _0911_
*1136 _0912_
*1137 _0913_
*1138 _0914_
*1139 _0915_
*1140 _0916_
*1141 _0917_
*1142 _0918_
*1143 _0919_
*1144 _0920_
*1145 _0921_
*1146 _0922_
*1147 _0923_
*1148 _0924_
*1149 _0925_
*1150 _0926_
*1151 _0927_
*1152 _0928_
*1153 _0929_
*1154 _0930_
*1155 _0931_
*1156 _0932_
*1157 _0933_
*1158 _0934_
*1159 _0935_
*1160 _0936_
*1161 _0937_
*1162 _0938_
*1163 _0939_
*1164 _0940_
*1165 _0941_
*1166 _0942_
*1167 _0943_
*1168 _0944_
*1169 _0945_
*1170 _0946_
*1171 _0947_
*1172 _0948_
*1173 _0949_
*1174 _0950_
*1175 _0951_
*1176 _0952_
*1177 _0953_
*1178 _0954_
*1179 _0955_
*1180 _0956_
*1181 _0957_
*1182 _0958_
*1183 _0959_
*1184 _0960_
*1185 _0961_
*1186 _0962_
*1187 _0963_
*1188 _0964_
*1189 _0965_
*1190 _0966_
*1191 _0967_
*1192 _0968_
*1193 _0969_
*1194 _0970_
*1195 _0971_
*1196 _0972_
*1197 _0973_
*1198 _0974_
*1199 _0975_
*1200 _0976_
*1201 _0977_
*1202 _0978_
*1203 _0979_
*1204 _0980_
*1205 _0981_
*1206 _0982_
*1207 _0983_
*1208 _0984_
*1209 _0985_
*1210 _0986_
*1211 _0987_
*1212 _0988_
*1213 _0989_
*1214 _0990_
*1215 _0991_
*1216 _0992_
*1217 _0993_
*1218 _0994_
*1219 _0995_
*1220 _0996_
*1221 _0997_
*1222 _0998_
*1223 _0999_
*1224 _1000_
*1225 _1001_
*1226 _1002_
*1227 _1003_
*1228 _1004_
*1229 _1005_
*1230 _1006_
*1231 _1007_
*1232 _1008_
*1233 _1009_
*1234 _1010_
*1235 _1011_
*1236 _1012_
*1237 _1013_
*1238 _1014_
*1239 _1015_
*1240 _1016_
*1241 _1017_
*1242 _1018_
*1243 _1019_
*1244 _1020_
*1245 _1021_
*1246 _1022_
*1247 _1023_
*1248 _1024_
*1249 _1025_
*1250 _1026_
*1251 _1027_
*1252 _1028_
*1253 _1029_
*1254 _1030_
*1255 _1031_
*1256 _1032_
*1257 _1033_
*1258 _1034_
*1259 _1035_
*1260 _1036_
*1261 _1037_
*1262 _1038_
*1263 _1039_
*1264 _1040_
*1265 _1041_
*1266 _1042_
*1267 _1043_
*1268 _1044_
*1269 _1045_
*1270 _1046_
*1271 _1047_
*1272 _1048_
*1273 _1049_
*1274 _1050_
*1275 _1051_
*1276 _1052_
*1277 _1053_
*1278 _1054_
*1279 _1055_
*1280 _1056_
*1281 _1057_
*1282 _1058_
*1283 _1059_
*1284 _1060_
*1285 _1061_
*1286 _1062_
*1287 _1063_
*1288 _1064_
*1289 _1065_
*1290 _1066_
*1291 _1067_
*1292 _1068_
*1293 _1069_
*1294 _1070_
*1295 _1071_
*1296 _1072_
*1297 _1073_
*1298 _1074_
*1299 _1075_
*1300 _1076_
*1301 _1077_
*1302 _1078_
*1303 _1079_
*1304 _1080_
*1305 _1081_
*1306 _1082_
*1307 _1083_
*1308 _1084_
*1309 _1085_
*1310 _1086_
*1311 _1087_
*1312 _1088_
*1313 _1089_
*1314 _1090_
*1315 _1091_
*1316 _1092_
*1317 _1093_
*1318 _1094_
*1319 _1095_
*1320 _1096_
*1321 _1097_
*1322 _1098_
*1323 _1099_
*1324 _1100_
*1325 _1101_
*1326 _1102_
*1327 _1103_
*1328 _1104_
*1329 _1105_
*1330 _1106_
*1331 _1107_
*1332 _1108_
*1333 _1109_
*1334 _1110_
*1335 _1111_
*1336 _1112_
*1337 _1113_
*1338 _1114_
*1339 _1115_
*1340 _1116_
*1341 _1117_
*1342 _1118_
*1343 _1119_
*1344 _1120_
*1345 _1121_
*1346 _1122_
*1347 _1123_
*1348 _1124_
*1349 _1125_
*1350 _1126_
*1351 _1127_
*1352 _1128_
*1353 _1129_
*1354 _1130_
*1355 _1131_
*1356 _1132_
*1357 _1133_
*1358 _1134_
*1359 _1135_
*1360 _1136_
*1361 _1137_
*1362 _1138_
*1363 _1139_
*1364 _1140_
*1365 _1141_
*1366 _1142_
*1367 _1143_
*1368 _1144_
*1369 _1145_
*1370 _1146_
*1371 _1147_
*1372 _1148_
*1373 _1149_
*1374 _1150_
*1375 _1151_
*1376 _1152_
*1377 _1153_
*1378 _1154_
*1379 _1155_
*1380 _1156_
*1381 _1157_
*1382 _1158_
*1383 _1159_
*1384 _1160_
*1385 _1161_
*1386 _1162_
*1387 _1163_
*1388 _1164_
*1389 _1165_
*1390 _1166_
*1391 _1167_
*1392 _1168_
*1393 _1169_
*1394 _1170_
*1395 _1171_
*1396 _1172_
*1397 _1173_
*1398 _1174_
*1399 _1175_
*1400 _1176_
*1401 _1177_
*1402 _1178_
*1403 _1179_
*1404 _1180_
*1405 _1181_
*1406 _1182_
*1407 _1183_
*1408 _1184_
*1409 _1185_
*1410 _1186_
*1411 _1187_
*1412 _1188_
*1413 _1189_
*1414 _1190_
*1415 _1191_
*1416 _1192_
*1417 _1193_
*1418 _1194_
*1419 _1195_
*1420 _1196_
*1421 _1197_
*1422 _1198_
*1423 _1199_
*1424 _1200_
*1425 _1201_
*1426 _1202_
*1427 _1203_
*1428 _1204_
*1429 _1205_
*1430 _1206_
*1431 _1207_
*1432 _1208_
*1433 _1209_
*1434 _1210_
*1435 _1211_
*1436 _1212_
*1437 _1213_
*1438 _1214_
*1439 _1215_
*1440 _1216_
*1441 _1217_
*1442 _1218_
*1443 _1219_
*1444 _1220_
*1445 _1221_
*1446 _1222_
*1447 _1223_
*1448 _1224_
*1449 _1225_
*1450 _1226_
*1451 _1227_
*1452 _1228_
*1453 _1229_
*1454 _1230_
*1455 _1231_
*1456 _1232_
*1457 _1233_
*1458 _1234_
*1459 _1235_
*1460 _1236_
*1461 _1237_
*1462 _1238_
*1463 _1239_
*1464 _1240_
*1465 _1241_
*1466 _1242_
*1467 _1243_
*1468 _1244_
*1469 _1245_
*1470 _1246_
*1471 _1247_
*1472 _1248_
*1473 _1249_
*1474 _1250_
*1475 _1251_
*1476 _1252_
*1477 _1253_
*1478 _1254_
*1479 _1255_
*1480 _1256_
*1481 _1257_
*1482 _1258_
*1483 _1259_
*1484 _1260_
*1485 _1261_
*1486 _1262_
*1487 _1263_
*1488 _1264_
*1489 _1265_
*1490 _1266_
*1491 _1267_
*1492 _1268_
*1493 _1269_
*1494 _1270_
*1495 _1271_
*1496 _1272_
*1497 _1273_
*1498 _1274_
*1499 _1275_
*1500 _1276_
*1501 _1277_
*1502 _1278_
*1503 _1279_
*1504 _1280_
*1505 _1281_
*1506 _1282_
*1507 _1283_
*1508 _1284_
*1509 _1285_
*1510 _1286_
*1511 _1287_
*1512 _1288_
*1513 _1289_
*1514 _1290_
*1515 _1291_
*1516 _1292_
*1517 _1293_
*1518 _1294_
*1519 _1295_
*1520 _1296_
*1521 _1297_
*1522 _1298_
*1523 _1299_
*1524 _1300_
*1525 _1301_
*1526 _1302_
*1527 _1303_
*1528 _1304_
*1529 _1305_
*1530 _1306_
*1531 _1307_
*1532 _1308_
*1533 _1309_
*1534 _1310_
*1535 _1311_
*1536 _1312_
*1537 _1313_
*1538 _1314_
*1539 _1315_
*1540 _1316_
*1541 _1317_
*1542 _1318_
*1543 _1319_
*1544 _1320_
*1545 _1321_
*1546 _1322_
*1547 _1323_
*1548 _1324_
*1549 _1325_
*1550 _1326_
*1551 _1327_
*1552 _1328_
*1553 _1329_
*1554 _1330_
*1555 _1331_
*1556 _1332_
*1557 _1333_
*1558 _1334_
*1559 _1335_
*1560 _1336_
*1561 _1337_
*1562 _1338_
*1563 _1339_
*1564 _1340_
*1565 _1341_
*1566 _1342_
*1567 _1343_
*1568 _1344_
*1569 _1345_
*1570 _1346_
*1571 _1347_
*1572 _1348_
*1573 _1349_
*1574 _1350_
*1575 _1351_
*1576 _1352_
*1577 _1353_
*1578 _1354_
*1579 _1355_
*1580 _1356_
*1581 _1357_
*1582 _1358_
*1583 _1359_
*1584 _1360_
*1585 _1361_
*1586 _1362_
*1587 _1363_
*1588 _1364_
*1589 _1365_
*1590 _1366_
*1591 _1367_
*1592 _1368_
*1593 _1369_
*1594 _1370_
*1595 _1371_
*1596 _1372_
*1597 _1373_
*1598 _1374_
*1599 _1375_
*1600 _1376_
*1601 _1377_
*1602 _1378_
*1603 _1379_
*1604 _1380_
*1605 _1381_
*1606 _1382_
*1607 _1383_
*1608 _1384_
*1609 _1385_
*1610 _1386_
*1611 _1387_
*1612 _1388_
*1613 _1389_
*1614 _1390_
*1615 _1391_
*1616 _1392_
*1617 _1393_
*1618 _1394_
*1619 _1395_
*1620 _1396_
*1621 _1397_
*1622 _1398_
*1623 _1399_
*1624 _1400_
*1625 _1401_
*1626 _1402_
*1627 _1403_
*1628 _1404_
*1629 _1405_
*1630 _1406_
*1631 _1407_
*1632 _1408_
*1633 _1409_
*1634 _1410_
*1635 _1411_
*1636 _1412_
*1637 _1413_
*1638 _1414_
*1639 _1415_
*1640 _1416_
*1641 _1417_
*1642 _1418_
*1643 _1419_
*1644 _1420_
*1645 _1421_
*1646 _1422_
*1647 _1423_
*1648 _1424_
*1649 _1425_
*1650 _1426_
*1651 _1427_
*1652 _1428_
*1653 _1429_
*1654 _1430_
*1655 _1431_
*1656 _1432_
*1657 _1433_
*1658 _1434_
*1659 _1435_
*1660 _1436_
*1661 _1437_
*1662 _1438_
*1663 _1439_
*1664 _1440_
*1665 _1441_
*1666 _1442_
*1667 _1443_
*1668 _1444_
*1669 _1445_
*1670 _1446_
*1671 _1447_
*1672 _1448_
*1673 _1449_
*1674 _1450_
*1675 _1451_
*1676 _1452_
*1677 _1453_
*1678 _1454_
*1679 _1455_
*1680 _1456_
*1681 _1457_
*1682 _1458_
*1683 _1459_
*1684 _1460_
*1685 _1461_
*1686 _1462_
*1687 _1463_
*1688 _1464_
*1689 _1465_
*1690 _1466_
*1691 _1467_
*1692 _1468_
*1693 _1469_
*1694 _1470_
*1695 _1471_
*1696 _1472_
*1697 _1473_
*1698 _1474_
*1699 _1475_
*1700 _1476_
*1701 _1477_
*1702 _1478_
*1703 _1479_
*1704 _1480_
*1705 _1481_
*1706 _1482_
*1707 _1483_
*1708 _1484_
*1709 _1485_
*1710 _1486_
*1711 _1487_
*1712 _1488_
*1713 _1489_
*1714 _1490_
*1715 _1491_
*1716 _1492_
*1717 _1493_
*1718 _1494_
*1719 _1495_
*1720 _1496_
*1721 _1497_
*1722 _1498_
*1723 _1499_
*1724 _1500_
*1725 _1501_
*1726 _1502_
*1727 _1503_
*1728 _1504_
*1729 _1505_
*1730 _1506_
*1731 _1507_
*1732 _1508_
*1733 _1509_
*1734 _1510_
*1735 _1511_
*1736 _1512_
*1737 _1513_
*1738 _1514_
*1739 _1515_
*1740 _1516_
*1741 _1517_
*1742 _1518_
*1743 _1519_
*1744 _1520_
*1745 _1521_
*1746 _1522_
*1747 _1523_
*1748 _1524_
*1749 _1525_
*1750 _1526_
*1751 _1527_
*1752 _1528_
*1753 _1529_
*1754 _1530_
*1755 _1531_
*1756 _1532_
*1757 _1533_
*1758 _1534_
*1759 _1535_
*1760 _1536_
*1761 _1537_
*1762 _1538_
*1763 _1539_
*1764 _1540_
*1765 _1541_
*1766 _1542_
*1767 _1543_
*1768 _1544_
*1769 _1545_
*1770 _1546_
*1771 _1547_
*1772 _1548_
*1773 _1549_
*1774 _1550_
*1775 _1551_
*1776 _1552_
*1777 _1553_
*1778 _1554_
*1779 _1555_
*1780 _1556_
*1781 _1557_
*1782 _1558_
*1783 _1559_
*1784 _1560_
*1785 _1561_
*1786 _1562_
*1787 _1563_
*1788 _1564_
*1789 _1565_
*1790 _1566_
*1791 _1567_
*1792 _1568_
*1793 _1569_
*1794 _1570_
*1795 _1571_
*1796 _1572_
*1797 _1573_
*1798 _1574_
*1799 _1575_
*1800 _1576_
*1801 _1577_
*1802 _1578_
*1803 _1579_
*1804 _1580_
*1805 _1581_
*1806 _1582_
*1807 _1583_
*1808 _1584_
*1809 _1585_
*1810 _1586_
*1811 _1587_
*1812 _1588_
*1813 _1589_
*1814 _1590_
*1815 _1591_
*1816 _1592_
*1817 _1593_
*1818 _1594_
*1819 _1595_
*1820 _1596_
*1821 _1597_
*1822 _1598_
*1823 _1599_
*1824 _1600_
*1825 _1601_
*1826 _1602_
*1827 _1603_
*1828 _1604_
*1829 _1605_
*1830 _1606_
*1831 _1607_
*1832 _1608_
*1833 _1609_
*1834 _1610_
*1835 _1611_
*1836 _1612_
*1837 _1613_
*1838 _1614_
*1839 _1615_
*1840 _1616_
*1841 _1617_
*1842 _1618_
*1843 _1619_
*1844 _1620_
*1845 _1621_
*1846 _1622_
*1847 _1623_
*1848 _1624_
*1849 _1625_
*1850 _1626_
*1851 _1627_
*1852 _1628_
*1853 _1629_
*1854 _1630_
*1855 _1631_
*1856 _1632_
*1857 _1633_
*1858 _1634_
*1859 _1635_
*1860 _1636_
*1861 _1637_
*1862 _1638_
*1863 _1639_
*1864 _1640_
*1865 _1641_
*1866 _1642_
*1867 _1643_
*1868 _1644_
*1869 _1645_
*1870 _1646_
*1871 _1647_
*1872 _1648_
*1873 _1649_
*1874 _1650_
*1875 _1651_
*1876 _1652_
*1877 _1653_
*1878 _1654_
*1879 _1655_
*1880 _1656_
*1881 _1657_
*1882 _1658_
*1883 _1659_
*1884 _1660_
*1885 _1661_
*1886 _1662_
*1887 _1663_
*1888 _1664_
*1889 _1665_
*1890 _1666_
*1891 _1667_
*1892 _1668_
*1893 _1669_
*1894 _1670_
*1895 _1671_
*1896 _1672_
*1897 _1673_
*1898 _1674_
*1899 _1675_
*1900 _1676_
*1901 _1677_
*1902 _1678_
*1903 _1679_
*1904 _1680_
*1905 _1681_
*1906 _1682_
*1907 _1683_
*1908 _1684_
*1909 _1685_
*1910 _1686_
*1911 _1687_
*1912 _1688_
*1913 _1689_
*1914 _1690_
*1915 _1691_
*1916 _1692_
*1917 _1693_
*1918 _1694_
*1919 _1695_
*1920 _1696_
*1921 _1697_
*1922 _1698_
*1923 _1699_
*1924 _1700_
*1925 _1701_
*1926 _1702_
*1927 _1703_
*1928 _1704_
*1929 _1705_
*1930 _1706_
*1931 _1707_
*1932 _1708_
*1933 _1709_
*1934 _1710_
*1935 _1711_
*1936 _1712_
*1937 _1713_
*1938 _1714_
*1939 _1715_
*1940 _1716_
*1941 _1717_
*1942 _1718_
*1943 _1719_
*1944 _1720_
*1945 _1721_
*1946 _1722_
*1947 _1723_
*1948 _1724_
*1949 _1725_
*1950 _1726_
*1951 _1727_
*1952 _1728_
*1953 _1729_
*1954 _1730_
*1955 _1731_
*1956 _1732_
*1957 _1733_
*1958 _1734_
*1959 _1735_
*1960 _1736_
*1961 _1737_
*1962 _1738_
*1963 _1739_
*1964 _1740_
*1965 _1741_
*1966 _1742_
*1967 _1743_
*1968 _1744_
*1969 _1745_
*1970 _1746_
*1971 _1747_
*1972 _1748_
*1973 _1749_
*1974 _1750_
*1975 _1751_
*1976 _1752_
*1977 _1753_
*1978 _1754_
*1979 _1755_
*1980 _1756_
*1981 _1757_
*1982 _1758_
*1983 _1759_
*1984 _1760_
*1985 _1761_
*1986 _1762_
*1987 _1763_
*1988 _1764_
*1989 _1765_
*1990 _1766_
*1991 _1767_
*1992 _1768_
*1993 _1769_
*1994 _1770_
*1995 _1771_
*1996 _1772_
*1997 _1773_
*1998 _1774_
*1999 _1775_
*2000 _1776_
*2001 _1777_
*2002 _1778_
*2003 _1779_
*2004 _1780_
*2005 _1781_
*2006 _1782_
*2007 _1783_
*2008 _1784_
*2009 _1785_
*2010 _1786_
*2011 _1787_
*2012 _1788_
*2013 _1789_
*2014 _1790_
*2015 _1791_
*2016 _1792_
*2017 _1793_
*2018 _1794_
*2019 _1795_
*2020 _1796_
*2021 _1797_
*2022 _1798_
*2023 _1799_
*2024 _1800_
*2025 _1801_
*2026 _1802_
*2027 _1803_
*2028 _1804_
*2029 _1805_
*2030 _1806_
*2031 _1807_
*2032 _1808_
*2033 _1809_
*2034 _1810_
*2035 _1811_
*2036 _1812_
*2037 _1813_
*2038 _1814_
*2039 _1815_
*2040 _1816_
*2041 _1817_
*2042 _1818_
*2043 _1819_
*2044 _1820_
*2045 _1821_
*2046 _1822_
*2047 _1823_
*2048 _1824_
*2049 _1825_
*2050 _1826_
*2051 _1827_
*2052 _1828_
*2053 _1829_
*2054 _1830_
*2055 _1831_
*2056 _1832_
*2057 _1833_
*2058 _1834_
*2059 _1835_
*2060 _1836_
*2061 _1837_
*2062 _1838_
*2063 _1839_
*2064 _1840_
*2065 _1841_
*2066 _1842_
*2067 _1843_
*2068 _1844_
*2069 _1845_
*2070 _1846_
*2071 _1847_
*2072 _1848_
*2073 _1849_
*2074 _1850_
*2075 _1851_
*2076 _1852_
*2077 _1853_
*2078 _1854_
*2079 _1855_
*2080 _1856_
*2081 _1857_
*2082 _1858_
*2083 _1859_
*2084 _1860_
*2085 _1861_
*2086 _1862_
*2087 _1863_
*2088 _1864_
*2089 _1865_
*2090 _1866_
*2091 _1867_
*2092 _1868_
*2093 _1869_
*2094 _1870_
*2095 _1871_
*2096 _1872_
*2097 _1873_
*2098 _1874_
*2099 _1875_
*2100 _1876_
*2101 _1877_
*2102 _1878_
*2103 _1879_
*2104 _1880_
*2105 _1881_
*2106 _1882_
*2107 _1883_
*2108 _1884_
*2109 _1885_
*2110 _1886_
*2111 _1887_
*2112 _1888_
*2113 _1889_
*2114 _1890_
*2115 _1891_
*2116 _1892_
*2117 _1893_
*2118 _1894_
*2119 _1895_
*2120 _1896_
*2121 _1897_
*2122 _1898_
*2123 _1899_
*2124 _1900_
*2125 _1901_
*2126 _1902_
*2127 _1903_
*2128 _1904_
*2129 _1905_
*2130 _1906_
*2131 _1907_
*2132 _1908_
*2133 _1909_
*2134 _1910_
*2135 _1911_
*2136 _1912_
*2137 _1913_
*2138 _1914_
*2139 _1915_
*2140 _1916_
*2141 _1917_
*2142 _1918_
*2143 _1919_
*2144 _1920_
*2145 _1921_
*2146 _1922_
*2147 _1923_
*2148 _1924_
*2149 _1925_
*2150 _1926_
*2151 _1927_
*2152 _1928_
*2153 _1929_
*2154 _1930_
*2155 _1931_
*2156 _1932_
*2157 _1933_
*2158 _1934_
*2159 _1935_
*2160 _1936_
*2161 _1937_
*2162 _1938_
*2163 _1939_
*2164 _1940_
*2165 _1941_
*2166 _1942_
*2167 _1943_
*2168 _1944_
*2169 _1945_
*2170 _1946_
*2171 _1947_
*2172 _1948_
*2173 _1949_
*2174 _1950_
*2175 _1951_
*2176 _1952_
*2177 _1953_
*2178 _1954_
*2179 _1955_
*2180 _1956_
*2181 _1957_
*2182 _1958_
*2183 _1959_
*2184 _1960_
*2185 _1961_
*2186 _1962_
*2187 _1963_
*2188 _1964_
*2189 _1965_
*2190 _1966_
*2191 _1967_
*2192 _1968_
*2193 _1969_
*2194 _1970_
*2195 _1971_
*2196 _1972_
*2197 _1973_
*2198 _1974_
*2199 _1975_
*2200 _1976_
*2201 _1977_
*2202 _1978_
*2203 _1979_
*2204 _1980_
*2205 _1981_
*2206 _1982_
*2207 _1983_
*2208 _1984_
*2209 _1985_
*2210 _1986_
*2211 _1987_
*2212 _1988_
*2213 _1989_
*2214 _1990_
*2215 _1991_
*2216 _1992_
*2217 _1993_
*2218 _1994_
*2219 _1995_
*2220 _1996_
*2221 _1997_
*2222 _1998_
*2223 _1999_
*2224 _2000_
*2225 _2001_
*2226 _2002_
*2227 _2003_
*2228 _2004_
*2229 _2005_
*2230 _2006_
*2231 _2007_
*2232 _2008_
*2233 _2009_
*2234 _2010_
*2235 _2011_
*2236 _2012_
*2237 _2013_
*2238 _2014_
*2239 _2015_
*2240 _2016_
*2241 _2017_
*2242 _2018_
*2243 _2019_
*2244 _2020_
*2245 _2021_
*2246 _2022_
*2247 _2023_
*2248 _2024_
*2249 _2025_
*2250 _2026_
*2251 _2027_
*2252 _2028_
*2253 _2029_
*2254 _2030_
*2255 _2031_
*2256 _2032_
*2257 _2033_
*2258 _2034_
*2259 _2035_
*2260 _2036_
*2261 _2037_
*2262 _2038_
*2263 _2039_
*2264 _2040_
*2265 _2041_
*2266 _2042_
*2267 _2043_
*2268 _2044_
*2269 _2045_
*2270 _2046_
*2271 _2047_
*2272 _2048_
*2273 _2049_
*2274 _2050_
*2275 _2051_
*2276 _2052_
*2277 _2053_
*2278 _2054_
*2279 _2055_
*2280 _2056_
*2281 _2057_
*2282 _2058_
*2283 _2059_
*2284 _2060_
*2285 _2061_
*2286 _2062_
*2287 _2063_
*2288 _2064_
*2289 _2065_