*SPEF "ieee 1481-1999"
*DESIGN "wrapped_etpu"
*DATE "11:11:11 Fri 11 11, 1111"
*VENDOR "OpenRCX"
*PROGRAM "Parallel Extraction"
*VERSION "1.0"
*DESIGN_FLOW "NAME_SCOPE LOCAL" "PIN_CAP NONE"
*DIVIDER /
*DELIMITER :
*BUS_DELIMITER []
*T_UNIT 1 NS
*C_UNIT 1 PF
*R_UNIT 1 OHM
*L_UNIT 1 HENRY

*NAME_MAP
*1 active
*4 wb_clk_i
*5 wb_rst_i
*6 wbs_ack_o
*7 wbs_adr_i[0]
*8 wbs_adr_i[10]
*9 wbs_adr_i[11]
*10 wbs_adr_i[12]
*11 wbs_adr_i[13]
*12 wbs_adr_i[14]
*13 wbs_adr_i[15]
*14 wbs_adr_i[16]
*15 wbs_adr_i[17]
*16 wbs_adr_i[18]
*17 wbs_adr_i[19]
*18 wbs_adr_i[1]
*19 wbs_adr_i[20]
*20 wbs_adr_i[21]
*21 wbs_adr_i[22]
*22 wbs_adr_i[23]
*23 wbs_adr_i[24]
*24 wbs_adr_i[25]
*25 wbs_adr_i[26]
*26 wbs_adr_i[27]
*27 wbs_adr_i[28]
*28 wbs_adr_i[29]
*29 wbs_adr_i[2]
*30 wbs_adr_i[30]
*31 wbs_adr_i[31]
*32 wbs_adr_i[3]
*33 wbs_adr_i[4]
*34 wbs_adr_i[5]
*35 wbs_adr_i[6]
*36 wbs_adr_i[7]
*37 wbs_adr_i[8]
*38 wbs_adr_i[9]
*39 wbs_cyc_i
*40 wbs_dat_i[0]
*41 wbs_dat_i[10]
*42 wbs_dat_i[11]
*43 wbs_dat_i[12]
*44 wbs_dat_i[13]
*45 wbs_dat_i[14]
*46 wbs_dat_i[15]
*47 wbs_dat_i[16]
*48 wbs_dat_i[17]
*49 wbs_dat_i[18]
*50 wbs_dat_i[19]
*51 wbs_dat_i[1]
*52 wbs_dat_i[20]
*53 wbs_dat_i[21]
*54 wbs_dat_i[22]
*55 wbs_dat_i[23]
*56 wbs_dat_i[24]
*57 wbs_dat_i[25]
*58 wbs_dat_i[26]
*59 wbs_dat_i[27]
*60 wbs_dat_i[28]
*61 wbs_dat_i[29]
*62 wbs_dat_i[2]
*63 wbs_dat_i[30]
*64 wbs_dat_i[31]
*65 wbs_dat_i[3]
*66 wbs_dat_i[4]
*67 wbs_dat_i[5]
*68 wbs_dat_i[6]
*69 wbs_dat_i[7]
*70 wbs_dat_i[8]
*71 wbs_dat_i[9]
*72 wbs_dat_o[0]
*73 wbs_dat_o[10]
*74 wbs_dat_o[11]
*75 wbs_dat_o[12]
*76 wbs_dat_o[13]
*77 wbs_dat_o[14]
*78 wbs_dat_o[15]
*79 wbs_dat_o[16]
*80 wbs_dat_o[17]
*81 wbs_dat_o[18]
*82 wbs_dat_o[19]
*83 wbs_dat_o[1]
*84 wbs_dat_o[20]
*85 wbs_dat_o[21]
*86 wbs_dat_o[22]
*87 wbs_dat_o[23]
*88 wbs_dat_o[24]
*89 wbs_dat_o[25]
*90 wbs_dat_o[26]
*91 wbs_dat_o[27]
*92 wbs_dat_o[28]
*93 wbs_dat_o[29]
*94 wbs_dat_o[2]
*95 wbs_dat_o[30]
*96 wbs_dat_o[31]
*97 wbs_dat_o[3]
*98 wbs_dat_o[4]
*99 wbs_dat_o[5]
*100 wbs_dat_o[6]
*101 wbs_dat_o[7]
*102 wbs_dat_o[8]
*103 wbs_dat_o[9]
*104 wbs_sel_i[0]
*105 wbs_sel_i[1]
*106 wbs_sel_i[2]
*107 wbs_sel_i[3]
*108 wbs_stb_i
*109 wbs_we_i
*110 _000_
*111 _001_
*112 _002_
*113 _003_
*114 _004_
*115 _005_
*116 _006_
*117 _007_
*118 _008_
*119 _009_
*120 _010_
*121 _011_
*122 _012_
*123 _013_
*124 _014_
*125 _015_
*126 _016_
*127 _017_
*128 _018_
*129 _019_
*130 _020_
*131 _021_
*132 _022_
*133 _023_
*134 _024_
*135 _025_
*136 _026_
*137 _027_
*138 _028_
*139 _029_
*140 _030_
*141 _031_
*142 _032_
*143 _033_
*144 _034_
*145 _035_
*146 _036_
*147 _037_
*148 _038_
*149 _039_
*150 _040_
*151 _041_
*152 _042_
*153 _043_
*154 _044_
*155 _045_
*156 _046_
*157 _047_
*158 _048_
*159 _049_
*160 _050_
*161 _051_
*162 etpu\.caravel_wb_ack_o
*163 net1
*164 net10
*165 net11
*166 net12
*167 net13
*168 net14
*169 net15
*170 net16
*171 net17
*172 net18
*173 net19
*174 net2
*175 net20
*176 net21
*177 net22
*178 net23
*179 net24
*180 net25
*181 net26
*182 net27
*183 net28
*184 net29
*185 net3
*186 net30
*187 net31
*188 net32
*189 net33
*190 net34
*191 net35
*192 net36
*193 net37
*194 net38
*195 net39
*196 net4
*197 net40
*198 net41
*199 net42
*200 net43
*201 net44
*202 net45
*203 net46
*204 net47
*205 net48
*206 net49
*207 net5
*208 net50
*209 net51
*210 net52
*211 net53
*212 net54
*213 net55
*214 net56
*215 net57
*216 net58
*217 net59
*218 net6
*219 net60
*220 net61
*221 net62
*222 net63
*223 net64
*224 net65
*225 net66
*226 net7
*227 net8
*228 net9
*229 ANTENNA_0
*230 ANTENNA_1
*231 ANTENNA_2
*232 ANTENNA_3
*233 ANTENNA_4
*234 ANTENNA_5
*235 ANTENNA_6
*236 ANTENNA_7
*237 FILLER_0_103
*238 FILLER_0_111
*239 FILLER_0_113
*240 FILLER_0_125
*241 FILLER_0_137
*242 FILLER_0_141
*243 FILLER_0_15
*244 FILLER_0_153
*245 FILLER_0_163
*246 FILLER_0_167
*247 FILLER_0_169
*248 FILLER_0_181
*249 FILLER_0_193
*250 FILLER_0_197
*251 FILLER_0_209
*252 FILLER_0_221
*253 FILLER_0_225
*254 FILLER_0_237
*255 FILLER_0_249
*256 FILLER_0_256
*257 FILLER_0_268
*258 FILLER_0_27
*259 FILLER_0_281
*260 FILLER_0_29
*261 FILLER_0_293
*262 FILLER_0_3
*263 FILLER_0_303
*264 FILLER_0_307
*265 FILLER_0_309
*266 FILLER_0_321
*267 FILLER_0_333
*268 FILLER_0_337
*269 FILLER_0_349
*270 FILLER_0_361
*271 FILLER_0_365
*272 FILLER_0_377
*273 FILLER_0_389
*274 FILLER_0_393
*275 FILLER_0_405
*276 FILLER_0_41
*277 FILLER_0_417
*278 FILLER_0_421
*279 FILLER_0_433
*280 FILLER_0_445
*281 FILLER_0_449
*282 FILLER_0_461
*283 FILLER_0_473
*284 FILLER_0_477
*285 FILLER_0_489
*286 FILLER_0_501
*287 FILLER_0_505
*288 FILLER_0_517
*289 FILLER_0_529
*290 FILLER_0_53
*291 FILLER_0_533
*292 FILLER_0_545
*293 FILLER_0_557
*294 FILLER_0_561
*295 FILLER_0_57
*296 FILLER_0_573
*297 FILLER_0_585
*298 FILLER_0_589
*299 FILLER_0_601
*300 FILLER_0_613
*301 FILLER_0_617
*302 FILLER_0_629
*303 FILLER_0_641
*304 FILLER_0_645
*305 FILLER_0_657
*306 FILLER_0_667
*307 FILLER_0_671
*308 FILLER_0_673
*309 FILLER_0_685
*310 FILLER_0_695
*311 FILLER_0_699
*312 FILLER_0_701
*313 FILLER_0_713
*314 FILLER_0_725
*315 FILLER_0_729
*316 FILLER_0_80
*317 FILLER_0_91
*318 FILLER_100_109
*319 FILLER_100_121
*320 FILLER_100_133
*321 FILLER_100_139
*322 FILLER_100_141
*323 FILLER_100_15
*324 FILLER_100_153
*325 FILLER_100_165
*326 FILLER_100_177
*327 FILLER_100_189
*328 FILLER_100_195
*329 FILLER_100_197
*330 FILLER_100_209
*331 FILLER_100_221
*332 FILLER_100_233
*333 FILLER_100_245
*334 FILLER_100_251
*335 FILLER_100_253
*336 FILLER_100_265
*337 FILLER_100_27
*338 FILLER_100_277
*339 FILLER_100_289
*340 FILLER_100_29
*341 FILLER_100_3
*342 FILLER_100_301
*343 FILLER_100_307
*344 FILLER_100_309
*345 FILLER_100_321
*346 FILLER_100_333
*347 FILLER_100_345
*348 FILLER_100_357
*349 FILLER_100_363
*350 FILLER_100_365
*351 FILLER_100_377
*352 FILLER_100_389
*353 FILLER_100_401
*354 FILLER_100_41
*355 FILLER_100_413
*356 FILLER_100_419
*357 FILLER_100_421
*358 FILLER_100_433
*359 FILLER_100_445
*360 FILLER_100_457
*361 FILLER_100_469
*362 FILLER_100_475
*363 FILLER_100_477
*364 FILLER_100_489
*365 FILLER_100_501
*366 FILLER_100_513
*367 FILLER_100_525
*368 FILLER_100_53
*369 FILLER_100_531
*370 FILLER_100_533
*371 FILLER_100_545
*372 FILLER_100_553
*373 FILLER_100_559
*374 FILLER_100_571
*375 FILLER_100_583
*376 FILLER_100_587
*377 FILLER_100_589
*378 FILLER_100_601
*379 FILLER_100_613
*380 FILLER_100_625
*381 FILLER_100_637
*382 FILLER_100_643
*383 FILLER_100_645
*384 FILLER_100_65
*385 FILLER_100_657
*386 FILLER_100_669
*387 FILLER_100_681
*388 FILLER_100_693
*389 FILLER_100_699
*390 FILLER_100_701
*391 FILLER_100_713
*392 FILLER_100_725
*393 FILLER_100_77
*394 FILLER_100_83
*395 FILLER_100_85
*396 FILLER_100_97
*397 FILLER_101_105
*398 FILLER_101_111
*399 FILLER_101_113
*400 FILLER_101_125
*401 FILLER_101_137
*402 FILLER_101_149
*403 FILLER_101_15
*404 FILLER_101_161
*405 FILLER_101_167
*406 FILLER_101_169
*407 FILLER_101_181
*408 FILLER_101_193
*409 FILLER_101_205
*410 FILLER_101_217
*411 FILLER_101_223
*412 FILLER_101_225
*413 FILLER_101_237
*414 FILLER_101_249
*415 FILLER_101_261
*416 FILLER_101_27
*417 FILLER_101_273
*418 FILLER_101_279
*419 FILLER_101_281
*420 FILLER_101_293
*421 FILLER_101_3
*422 FILLER_101_305
*423 FILLER_101_317
*424 FILLER_101_329
*425 FILLER_101_335
*426 FILLER_101_337
*427 FILLER_101_349
*428 FILLER_101_361
*429 FILLER_101_373
*430 FILLER_101_385
*431 FILLER_101_39
*432 FILLER_101_391
*433 FILLER_101_393
*434 FILLER_101_405
*435 FILLER_101_417
*436 FILLER_101_429
*437 FILLER_101_441
*438 FILLER_101_447
*439 FILLER_101_449
*440 FILLER_101_461
*441 FILLER_101_473
*442 FILLER_101_485
*443 FILLER_101_497
*444 FILLER_101_503
*445 FILLER_101_505
*446 FILLER_101_51
*447 FILLER_101_517
*448 FILLER_101_529
*449 FILLER_101_541
*450 FILLER_101_55
*451 FILLER_101_553
*452 FILLER_101_559
*453 FILLER_101_561
*454 FILLER_101_57
*455 FILLER_101_573
*456 FILLER_101_585
*457 FILLER_101_597
*458 FILLER_101_609
*459 FILLER_101_615
*460 FILLER_101_617
*461 FILLER_101_629
*462 FILLER_101_641
*463 FILLER_101_653
*464 FILLER_101_665
*465 FILLER_101_671
*466 FILLER_101_673
*467 FILLER_101_685
*468 FILLER_101_69
*469 FILLER_101_697
*470 FILLER_101_709
*471 FILLER_101_721
*472 FILLER_101_727
*473 FILLER_101_729
*474 FILLER_101_81
*475 FILLER_101_93
*476 FILLER_102_109
*477 FILLER_102_121
*478 FILLER_102_133
*479 FILLER_102_139
*480 FILLER_102_141
*481 FILLER_102_15
*482 FILLER_102_153
*483 FILLER_102_165
*484 FILLER_102_177
*485 FILLER_102_189
*486 FILLER_102_195
*487 FILLER_102_197
*488 FILLER_102_209
*489 FILLER_102_221
*490 FILLER_102_233
*491 FILLER_102_245
*492 FILLER_102_251
*493 FILLER_102_253
*494 FILLER_102_265
*495 FILLER_102_27
*496 FILLER_102_277
*497 FILLER_102_289
*498 FILLER_102_29
*499 FILLER_102_3
*500 FILLER_102_301
*501 FILLER_102_307
*502 FILLER_102_309
*503 FILLER_102_321
*504 FILLER_102_333
*505 FILLER_102_345
*506 FILLER_102_357
*507 FILLER_102_363
*508 FILLER_102_365
*509 FILLER_102_377
*510 FILLER_102_389
*511 FILLER_102_401
*512 FILLER_102_41
*513 FILLER_102_413
*514 FILLER_102_419
*515 FILLER_102_421
*516 FILLER_102_433
*517 FILLER_102_445
*518 FILLER_102_457
*519 FILLER_102_469
*520 FILLER_102_475
*521 FILLER_102_477
*522 FILLER_102_489
*523 FILLER_102_501
*524 FILLER_102_513
*525 FILLER_102_525
*526 FILLER_102_53
*527 FILLER_102_531
*528 FILLER_102_533
*529 FILLER_102_545
*530 FILLER_102_557
*531 FILLER_102_569
*532 FILLER_102_581
*533 FILLER_102_587
*534 FILLER_102_589
*535 FILLER_102_601
*536 FILLER_102_613
*537 FILLER_102_625
*538 FILLER_102_637
*539 FILLER_102_643
*540 FILLER_102_645
*541 FILLER_102_65
*542 FILLER_102_657
*543 FILLER_102_669
*544 FILLER_102_681
*545 FILLER_102_693
*546 FILLER_102_699
*547 FILLER_102_701
*548 FILLER_102_713
*549 FILLER_102_725
*550 FILLER_102_77
*551 FILLER_102_83
*552 FILLER_102_85
*553 FILLER_102_97
*554 FILLER_103_105
*555 FILLER_103_111
*556 FILLER_103_113
*557 FILLER_103_125
*558 FILLER_103_137
*559 FILLER_103_149
*560 FILLER_103_15
*561 FILLER_103_161
*562 FILLER_103_167
*563 FILLER_103_169
*564 FILLER_103_181
*565 FILLER_103_193
*566 FILLER_103_205
*567 FILLER_103_217
*568 FILLER_103_223
*569 FILLER_103_225
*570 FILLER_103_237
*571 FILLER_103_249
*572 FILLER_103_261
*573 FILLER_103_27
*574 FILLER_103_273
*575 FILLER_103_279
*576 FILLER_103_281
*577 FILLER_103_289
*578 FILLER_103_295
*579 FILLER_103_3
*580 FILLER_103_320
*581 FILLER_103_332
*582 FILLER_103_337
*583 FILLER_103_349
*584 FILLER_103_361
*585 FILLER_103_373
*586 FILLER_103_385
*587 FILLER_103_39
*588 FILLER_103_391
*589 FILLER_103_393
*590 FILLER_103_405
*591 FILLER_103_417
*592 FILLER_103_429
*593 FILLER_103_441
*594 FILLER_103_447
*595 FILLER_103_449
*596 FILLER_103_461
*597 FILLER_103_473
*598 FILLER_103_485
*599 FILLER_103_497
*600 FILLER_103_503
*601 FILLER_103_505
*602 FILLER_103_51
*603 FILLER_103_517
*604 FILLER_103_529
*605 FILLER_103_541
*606 FILLER_103_55
*607 FILLER_103_553
*608 FILLER_103_559
*609 FILLER_103_561
*610 FILLER_103_57
*611 FILLER_103_573
*612 FILLER_103_585
*613 FILLER_103_597
*614 FILLER_103_609
*615 FILLER_103_615
*616 FILLER_103_617
*617 FILLER_103_629
*618 FILLER_103_641
*619 FILLER_103_653
*620 FILLER_103_665
*621 FILLER_103_671
*622 FILLER_103_673
*623 FILLER_103_685
*624 FILLER_103_69
*625 FILLER_103_697
*626 FILLER_103_709
*627 FILLER_103_721
*628 FILLER_103_727
*629 FILLER_103_729
*630 FILLER_103_81
*631 FILLER_103_93
*632 FILLER_104_109
*633 FILLER_104_121
*634 FILLER_104_133
*635 FILLER_104_139
*636 FILLER_104_141
*637 FILLER_104_15
*638 FILLER_104_153
*639 FILLER_104_165
*640 FILLER_104_177
*641 FILLER_104_189
*642 FILLER_104_195
*643 FILLER_104_197
*644 FILLER_104_209
*645 FILLER_104_221
*646 FILLER_104_233
*647 FILLER_104_245
*648 FILLER_104_251
*649 FILLER_104_253
*650 FILLER_104_265
*651 FILLER_104_27
*652 FILLER_104_277
*653 FILLER_104_289
*654 FILLER_104_29
*655 FILLER_104_297
*656 FILLER_104_3
*657 FILLER_104_302
*658 FILLER_104_309
*659 FILLER_104_321
*660 FILLER_104_333
*661 FILLER_104_345
*662 FILLER_104_357
*663 FILLER_104_363
*664 FILLER_104_365
*665 FILLER_104_377
*666 FILLER_104_389
*667 FILLER_104_401
*668 FILLER_104_41
*669 FILLER_104_413
*670 FILLER_104_419
*671 FILLER_104_421
*672 FILLER_104_433
*673 FILLER_104_445
*674 FILLER_104_457
*675 FILLER_104_469
*676 FILLER_104_475
*677 FILLER_104_477
*678 FILLER_104_489
*679 FILLER_104_501
*680 FILLER_104_513
*681 FILLER_104_525
*682 FILLER_104_53
*683 FILLER_104_531
*684 FILLER_104_533
*685 FILLER_104_545
*686 FILLER_104_557
*687 FILLER_104_569
*688 FILLER_104_581
*689 FILLER_104_587
*690 FILLER_104_589
*691 FILLER_104_601
*692 FILLER_104_613
*693 FILLER_104_625
*694 FILLER_104_637
*695 FILLER_104_643
*696 FILLER_104_645
*697 FILLER_104_65
*698 FILLER_104_657
*699 FILLER_104_669
*700 FILLER_104_681
*701 FILLER_104_693
*702 FILLER_104_699
*703 FILLER_104_701
*704 FILLER_104_713
*705 FILLER_104_725
*706 FILLER_104_77
*707 FILLER_104_83
*708 FILLER_104_85
*709 FILLER_104_97
*710 FILLER_105_105
*711 FILLER_105_111
*712 FILLER_105_113
*713 FILLER_105_125
*714 FILLER_105_137
*715 FILLER_105_149
*716 FILLER_105_15
*717 FILLER_105_161
*718 FILLER_105_167
*719 FILLER_105_169
*720 FILLER_105_181
*721 FILLER_105_193
*722 FILLER_105_205
*723 FILLER_105_217
*724 FILLER_105_223
*725 FILLER_105_225
*726 FILLER_105_237
*727 FILLER_105_249
*728 FILLER_105_261
*729 FILLER_105_27
*730 FILLER_105_273
*731 FILLER_105_279
*732 FILLER_105_281
*733 FILLER_105_293
*734 FILLER_105_3
*735 FILLER_105_305
*736 FILLER_105_317
*737 FILLER_105_329
*738 FILLER_105_335
*739 FILLER_105_337
*740 FILLER_105_349
*741 FILLER_105_361
*742 FILLER_105_373
*743 FILLER_105_385
*744 FILLER_105_39
*745 FILLER_105_391
*746 FILLER_105_393
*747 FILLER_105_405
*748 FILLER_105_417
*749 FILLER_105_429
*750 FILLER_105_441
*751 FILLER_105_447
*752 FILLER_105_449
*753 FILLER_105_461
*754 FILLER_105_473
*755 FILLER_105_485
*756 FILLER_105_497
*757 FILLER_105_503
*758 FILLER_105_505
*759 FILLER_105_51
*760 FILLER_105_517
*761 FILLER_105_529
*762 FILLER_105_541
*763 FILLER_105_55
*764 FILLER_105_553
*765 FILLER_105_559
*766 FILLER_105_561
*767 FILLER_105_57
*768 FILLER_105_573
*769 FILLER_105_585
*770 FILLER_105_597
*771 FILLER_105_609
*772 FILLER_105_615
*773 FILLER_105_617
*774 FILLER_105_629
*775 FILLER_105_641
*776 FILLER_105_653
*777 FILLER_105_665
*778 FILLER_105_671
*779 FILLER_105_673
*780 FILLER_105_685
*781 FILLER_105_69
*782 FILLER_105_697
*783 FILLER_105_709
*784 FILLER_105_717
*785 FILLER_105_724
*786 FILLER_105_729
*787 FILLER_105_81
*788 FILLER_105_93
*789 FILLER_106_109
*790 FILLER_106_121
*791 FILLER_106_13
*792 FILLER_106_133
*793 FILLER_106_139
*794 FILLER_106_141
*795 FILLER_106_153
*796 FILLER_106_165
*797 FILLER_106_177
*798 FILLER_106_189
*799 FILLER_106_195
*800 FILLER_106_197
*801 FILLER_106_209
*802 FILLER_106_221
*803 FILLER_106_233
*804 FILLER_106_245
*805 FILLER_106_25
*806 FILLER_106_251
*807 FILLER_106_253
*808 FILLER_106_265
*809 FILLER_106_277
*810 FILLER_106_289
*811 FILLER_106_29
*812 FILLER_106_3
*813 FILLER_106_301
*814 FILLER_106_307
*815 FILLER_106_309
*816 FILLER_106_321
*817 FILLER_106_333
*818 FILLER_106_345
*819 FILLER_106_357
*820 FILLER_106_363
*821 FILLER_106_365
*822 FILLER_106_377
*823 FILLER_106_389
*824 FILLER_106_401
*825 FILLER_106_41
*826 FILLER_106_413
*827 FILLER_106_419
*828 FILLER_106_421
*829 FILLER_106_433
*830 FILLER_106_445
*831 FILLER_106_457
*832 FILLER_106_469
*833 FILLER_106_475
*834 FILLER_106_477
*835 FILLER_106_489
*836 FILLER_106_501
*837 FILLER_106_513
*838 FILLER_106_525
*839 FILLER_106_53
*840 FILLER_106_531
*841 FILLER_106_533
*842 FILLER_106_545
*843 FILLER_106_557
*844 FILLER_106_569
*845 FILLER_106_581
*846 FILLER_106_587
*847 FILLER_106_589
*848 FILLER_106_601
*849 FILLER_106_613
*850 FILLER_106_625
*851 FILLER_106_637
*852 FILLER_106_643
*853 FILLER_106_645
*854 FILLER_106_65
*855 FILLER_106_657
*856 FILLER_106_669
*857 FILLER_106_681
*858 FILLER_106_693
*859 FILLER_106_699
*860 FILLER_106_701
*861 FILLER_106_713
*862 FILLER_106_725
*863 FILLER_106_77
*864 FILLER_106_83
*865 FILLER_106_85
*866 FILLER_106_97
*867 FILLER_107_105
*868 FILLER_107_111
*869 FILLER_107_113
*870 FILLER_107_125
*871 FILLER_107_137
*872 FILLER_107_149
*873 FILLER_107_15
*874 FILLER_107_161
*875 FILLER_107_167
*876 FILLER_107_169
*877 FILLER_107_181
*878 FILLER_107_193
*879 FILLER_107_205
*880 FILLER_107_217
*881 FILLER_107_223
*882 FILLER_107_225
*883 FILLER_107_237
*884 FILLER_107_249
*885 FILLER_107_261
*886 FILLER_107_27
*887 FILLER_107_273
*888 FILLER_107_279
*889 FILLER_107_281
*890 FILLER_107_293
*891 FILLER_107_3
*892 FILLER_107_305
*893 FILLER_107_311
*894 FILLER_107_315
*895 FILLER_107_327
*896 FILLER_107_335
*897 FILLER_107_337
*898 FILLER_107_349
*899 FILLER_107_361
*900 FILLER_107_373
*901 FILLER_107_385
*902 FILLER_107_39
*903 FILLER_107_391
*904 FILLER_107_393
*905 FILLER_107_405
*906 FILLER_107_417
*907 FILLER_107_429
*908 FILLER_107_441
*909 FILLER_107_447
*910 FILLER_107_449
*911 FILLER_107_461
*912 FILLER_107_473
*913 FILLER_107_485
*914 FILLER_107_497
*915 FILLER_107_503
*916 FILLER_107_505
*917 FILLER_107_51
*918 FILLER_107_517
*919 FILLER_107_529
*920 FILLER_107_541
*921 FILLER_107_55
*922 FILLER_107_553
*923 FILLER_107_559
*924 FILLER_107_561
*925 FILLER_107_57
*926 FILLER_107_573
*927 FILLER_107_585
*928 FILLER_107_597
*929 FILLER_107_609
*930 FILLER_107_615
*931 FILLER_107_617
*932 FILLER_107_629
*933 FILLER_107_641
*934 FILLER_107_653
*935 FILLER_107_665
*936 FILLER_107_671
*937 FILLER_107_673
*938 FILLER_107_685
*939 FILLER_107_69
*940 FILLER_107_697
*941 FILLER_107_709
*942 FILLER_107_721
*943 FILLER_107_727
*944 FILLER_107_729
*945 FILLER_107_81
*946 FILLER_107_93
*947 FILLER_108_109
*948 FILLER_108_121
*949 FILLER_108_133
*950 FILLER_108_139
*951 FILLER_108_141
*952 FILLER_108_15
*953 FILLER_108_153
*954 FILLER_108_165
*955 FILLER_108_177
*956 FILLER_108_189
*957 FILLER_108_195
*958 FILLER_108_197
*959 FILLER_108_209
*960 FILLER_108_221
*961 FILLER_108_233
*962 FILLER_108_245
*963 FILLER_108_251
*964 FILLER_108_253
*965 FILLER_108_265
*966 FILLER_108_27
*967 FILLER_108_277
*968 FILLER_108_289
*969 FILLER_108_29
*970 FILLER_108_3
*971 FILLER_108_301
*972 FILLER_108_307
*973 FILLER_108_330
*974 FILLER_108_342
*975 FILLER_108_354
*976 FILLER_108_362
*977 FILLER_108_365
*978 FILLER_108_377
*979 FILLER_108_389
*980 FILLER_108_401
*981 FILLER_108_41
*982 FILLER_108_413
*983 FILLER_108_419
*984 FILLER_108_421
*985 FILLER_108_433
*986 FILLER_108_445
*987 FILLER_108_457
*988 FILLER_108_469
*989 FILLER_108_475
*990 FILLER_108_477
*991 FILLER_108_489
*992 FILLER_108_501
*993 FILLER_108_513
*994 FILLER_108_525
*995 FILLER_108_53
*996 FILLER_108_531
*997 FILLER_108_533
*998 FILLER_108_545
*999 FILLER_108_557
*1000 FILLER_108_569
*1001 FILLER_108_581
*1002 FILLER_108_587
*1003 FILLER_108_589
*1004 FILLER_108_601
*1005 FILLER_108_613
*1006 FILLER_108_625
*1007 FILLER_108_637
*1008 FILLER_108_643
*1009 FILLER_108_645
*1010 FILLER_108_65
*1011 FILLER_108_657
*1012 FILLER_108_669
*1013 FILLER_108_681
*1014 FILLER_108_693
*1015 FILLER_108_699
*1016 FILLER_108_701
*1017 FILLER_108_713
*1018 FILLER_108_725
*1019 FILLER_108_77
*1020 FILLER_108_83
*1021 FILLER_108_85
*1022 FILLER_108_97
*1023 FILLER_109_105
*1024 FILLER_109_111
*1025 FILLER_109_113
*1026 FILLER_109_125
*1027 FILLER_109_137
*1028 FILLER_109_149
*1029 FILLER_109_15
*1030 FILLER_109_161
*1031 FILLER_109_167
*1032 FILLER_109_169
*1033 FILLER_109_181
*1034 FILLER_109_193
*1035 FILLER_109_205
*1036 FILLER_109_217
*1037 FILLER_109_223
*1038 FILLER_109_225
*1039 FILLER_109_237
*1040 FILLER_109_249
*1041 FILLER_109_261
*1042 FILLER_109_27
*1043 FILLER_109_273
*1044 FILLER_109_279
*1045 FILLER_109_281
*1046 FILLER_109_293
*1047 FILLER_109_3
*1048 FILLER_109_305
*1049 FILLER_109_309
*1050 FILLER_109_313
*1051 FILLER_109_325
*1052 FILLER_109_333
*1053 FILLER_109_337
*1054 FILLER_109_349
*1055 FILLER_109_361
*1056 FILLER_109_373
*1057 FILLER_109_385
*1058 FILLER_109_39
*1059 FILLER_109_391
*1060 FILLER_109_393
*1061 FILLER_109_405
*1062 FILLER_109_417
*1063 FILLER_109_429
*1064 FILLER_109_441
*1065 FILLER_109_447
*1066 FILLER_109_449
*1067 FILLER_109_461
*1068 FILLER_109_473
*1069 FILLER_109_485
*1070 FILLER_109_497
*1071 FILLER_109_503
*1072 FILLER_109_505
*1073 FILLER_109_51
*1074 FILLER_109_517
*1075 FILLER_109_529
*1076 FILLER_109_541
*1077 FILLER_109_55
*1078 FILLER_109_553
*1079 FILLER_109_559
*1080 FILLER_109_561
*1081 FILLER_109_57
*1082 FILLER_109_573
*1083 FILLER_109_585
*1084 FILLER_109_597
*1085 FILLER_109_609
*1086 FILLER_109_615
*1087 FILLER_109_617
*1088 FILLER_109_629
*1089 FILLER_109_641
*1090 FILLER_109_653
*1091 FILLER_109_665
*1092 FILLER_109_671
*1093 FILLER_109_673
*1094 FILLER_109_685
*1095 FILLER_109_69
*1096 FILLER_109_697
*1097 FILLER_109_709
*1098 FILLER_109_721
*1099 FILLER_109_727
*1100 FILLER_109_729
*1101 FILLER_109_81
*1102 FILLER_109_93
*1103 FILLER_10_109
*1104 FILLER_10_121
*1105 FILLER_10_133
*1106 FILLER_10_139
*1107 FILLER_10_141
*1108 FILLER_10_15
*1109 FILLER_10_153
*1110 FILLER_10_165
*1111 FILLER_10_177
*1112 FILLER_10_189
*1113 FILLER_10_195
*1114 FILLER_10_197
*1115 FILLER_10_209
*1116 FILLER_10_221
*1117 FILLER_10_233
*1118 FILLER_10_245
*1119 FILLER_10_251
*1120 FILLER_10_253
*1121 FILLER_10_265
*1122 FILLER_10_27
*1123 FILLER_10_277
*1124 FILLER_10_289
*1125 FILLER_10_29
*1126 FILLER_10_3
*1127 FILLER_10_301
*1128 FILLER_10_307
*1129 FILLER_10_309
*1130 FILLER_10_321
*1131 FILLER_10_333
*1132 FILLER_10_345
*1133 FILLER_10_357
*1134 FILLER_10_363
*1135 FILLER_10_365
*1136 FILLER_10_377
*1137 FILLER_10_389
*1138 FILLER_10_401
*1139 FILLER_10_41
*1140 FILLER_10_413
*1141 FILLER_10_419
*1142 FILLER_10_421
*1143 FILLER_10_433
*1144 FILLER_10_445
*1145 FILLER_10_457
*1146 FILLER_10_469
*1147 FILLER_10_475
*1148 FILLER_10_477
*1149 FILLER_10_489
*1150 FILLER_10_501
*1151 FILLER_10_513
*1152 FILLER_10_525
*1153 FILLER_10_53
*1154 FILLER_10_531
*1155 FILLER_10_533
*1156 FILLER_10_545
*1157 FILLER_10_557
*1158 FILLER_10_569
*1159 FILLER_10_581
*1160 FILLER_10_587
*1161 FILLER_10_589
*1162 FILLER_10_601
*1163 FILLER_10_613
*1164 FILLER_10_625
*1165 FILLER_10_637
*1166 FILLER_10_643
*1167 FILLER_10_645
*1168 FILLER_10_65
*1169 FILLER_10_657
*1170 FILLER_10_669
*1171 FILLER_10_681
*1172 FILLER_10_693
*1173 FILLER_10_699
*1174 FILLER_10_701
*1175 FILLER_10_713
*1176 FILLER_10_725
*1177 FILLER_10_77
*1178 FILLER_10_83
*1179 FILLER_10_85
*1180 FILLER_10_97
*1181 FILLER_110_109
*1182 FILLER_110_121
*1183 FILLER_110_133
*1184 FILLER_110_139
*1185 FILLER_110_141
*1186 FILLER_110_15
*1187 FILLER_110_153
*1188 FILLER_110_165
*1189 FILLER_110_177
*1190 FILLER_110_189
*1191 FILLER_110_195
*1192 FILLER_110_197
*1193 FILLER_110_209
*1194 FILLER_110_221
*1195 FILLER_110_233
*1196 FILLER_110_245
*1197 FILLER_110_251
*1198 FILLER_110_253
*1199 FILLER_110_265
*1200 FILLER_110_27
*1201 FILLER_110_277
*1202 FILLER_110_289
*1203 FILLER_110_29
*1204 FILLER_110_3
*1205 FILLER_110_301
*1206 FILLER_110_307
*1207 FILLER_110_309
*1208 FILLER_110_321
*1209 FILLER_110_333
*1210 FILLER_110_345
*1211 FILLER_110_357
*1212 FILLER_110_363
*1213 FILLER_110_365
*1214 FILLER_110_377
*1215 FILLER_110_389
*1216 FILLER_110_401
*1217 FILLER_110_41
*1218 FILLER_110_413
*1219 FILLER_110_419
*1220 FILLER_110_421
*1221 FILLER_110_433
*1222 FILLER_110_445
*1223 FILLER_110_457
*1224 FILLER_110_469
*1225 FILLER_110_475
*1226 FILLER_110_477
*1227 FILLER_110_489
*1228 FILLER_110_501
*1229 FILLER_110_513
*1230 FILLER_110_525
*1231 FILLER_110_53
*1232 FILLER_110_531
*1233 FILLER_110_533
*1234 FILLER_110_545
*1235 FILLER_110_557
*1236 FILLER_110_569
*1237 FILLER_110_581
*1238 FILLER_110_587
*1239 FILLER_110_589
*1240 FILLER_110_601
*1241 FILLER_110_613
*1242 FILLER_110_625
*1243 FILLER_110_637
*1244 FILLER_110_643
*1245 FILLER_110_645
*1246 FILLER_110_65
*1247 FILLER_110_657
*1248 FILLER_110_669
*1249 FILLER_110_681
*1250 FILLER_110_693
*1251 FILLER_110_699
*1252 FILLER_110_701
*1253 FILLER_110_713
*1254 FILLER_110_721
*1255 FILLER_110_729
*1256 FILLER_110_77
*1257 FILLER_110_83
*1258 FILLER_110_85
*1259 FILLER_110_97
*1260 FILLER_111_105
*1261 FILLER_111_11
*1262 FILLER_111_111
*1263 FILLER_111_113
*1264 FILLER_111_125
*1265 FILLER_111_137
*1266 FILLER_111_149
*1267 FILLER_111_161
*1268 FILLER_111_167
*1269 FILLER_111_169
*1270 FILLER_111_181
*1271 FILLER_111_193
*1272 FILLER_111_205
*1273 FILLER_111_217
*1274 FILLER_111_223
*1275 FILLER_111_225
*1276 FILLER_111_23
*1277 FILLER_111_237
*1278 FILLER_111_249
*1279 FILLER_111_261
*1280 FILLER_111_273
*1281 FILLER_111_279
*1282 FILLER_111_281
*1283 FILLER_111_293
*1284 FILLER_111_3
*1285 FILLER_111_305
*1286 FILLER_111_317
*1287 FILLER_111_329
*1288 FILLER_111_335
*1289 FILLER_111_337
*1290 FILLER_111_349
*1291 FILLER_111_35
*1292 FILLER_111_361
*1293 FILLER_111_373
*1294 FILLER_111_385
*1295 FILLER_111_391
*1296 FILLER_111_393
*1297 FILLER_111_405
*1298 FILLER_111_417
*1299 FILLER_111_429
*1300 FILLER_111_441
*1301 FILLER_111_447
*1302 FILLER_111_449
*1303 FILLER_111_461
*1304 FILLER_111_47
*1305 FILLER_111_473
*1306 FILLER_111_485
*1307 FILLER_111_497
*1308 FILLER_111_503
*1309 FILLER_111_505
*1310 FILLER_111_517
*1311 FILLER_111_529
*1312 FILLER_111_541
*1313 FILLER_111_55
*1314 FILLER_111_553
*1315 FILLER_111_559
*1316 FILLER_111_561
*1317 FILLER_111_57
*1318 FILLER_111_573
*1319 FILLER_111_585
*1320 FILLER_111_597
*1321 FILLER_111_609
*1322 FILLER_111_615
*1323 FILLER_111_617
*1324 FILLER_111_629
*1325 FILLER_111_641
*1326 FILLER_111_653
*1327 FILLER_111_665
*1328 FILLER_111_671
*1329 FILLER_111_673
*1330 FILLER_111_685
*1331 FILLER_111_69
*1332 FILLER_111_697
*1333 FILLER_111_709
*1334 FILLER_111_721
*1335 FILLER_111_727
*1336 FILLER_111_729
*1337 FILLER_111_81
*1338 FILLER_111_93
*1339 FILLER_112_109
*1340 FILLER_112_121
*1341 FILLER_112_133
*1342 FILLER_112_139
*1343 FILLER_112_141
*1344 FILLER_112_15
*1345 FILLER_112_153
*1346 FILLER_112_165
*1347 FILLER_112_177
*1348 FILLER_112_189
*1349 FILLER_112_195
*1350 FILLER_112_197
*1351 FILLER_112_209
*1352 FILLER_112_221
*1353 FILLER_112_233
*1354 FILLER_112_245
*1355 FILLER_112_251
*1356 FILLER_112_253
*1357 FILLER_112_265
*1358 FILLER_112_27
*1359 FILLER_112_277
*1360 FILLER_112_289
*1361 FILLER_112_29
*1362 FILLER_112_3
*1363 FILLER_112_301
*1364 FILLER_112_307
*1365 FILLER_112_309
*1366 FILLER_112_321
*1367 FILLER_112_333
*1368 FILLER_112_345
*1369 FILLER_112_357
*1370 FILLER_112_363
*1371 FILLER_112_365
*1372 FILLER_112_377
*1373 FILLER_112_389
*1374 FILLER_112_401
*1375 FILLER_112_41
*1376 FILLER_112_413
*1377 FILLER_112_419
*1378 FILLER_112_421
*1379 FILLER_112_433
*1380 FILLER_112_445
*1381 FILLER_112_457
*1382 FILLER_112_469
*1383 FILLER_112_475
*1384 FILLER_112_477
*1385 FILLER_112_489
*1386 FILLER_112_501
*1387 FILLER_112_513
*1388 FILLER_112_525
*1389 FILLER_112_53
*1390 FILLER_112_531
*1391 FILLER_112_533
*1392 FILLER_112_545
*1393 FILLER_112_557
*1394 FILLER_112_569
*1395 FILLER_112_581
*1396 FILLER_112_587
*1397 FILLER_112_589
*1398 FILLER_112_601
*1399 FILLER_112_613
*1400 FILLER_112_625
*1401 FILLER_112_637
*1402 FILLER_112_643
*1403 FILLER_112_645
*1404 FILLER_112_65
*1405 FILLER_112_657
*1406 FILLER_112_669
*1407 FILLER_112_681
*1408 FILLER_112_693
*1409 FILLER_112_699
*1410 FILLER_112_701
*1411 FILLER_112_713
*1412 FILLER_112_725
*1413 FILLER_112_77
*1414 FILLER_112_83
*1415 FILLER_112_85
*1416 FILLER_112_97
*1417 FILLER_113_105
*1418 FILLER_113_111
*1419 FILLER_113_113
*1420 FILLER_113_125
*1421 FILLER_113_137
*1422 FILLER_113_149
*1423 FILLER_113_15
*1424 FILLER_113_161
*1425 FILLER_113_167
*1426 FILLER_113_169
*1427 FILLER_113_181
*1428 FILLER_113_193
*1429 FILLER_113_205
*1430 FILLER_113_217
*1431 FILLER_113_223
*1432 FILLER_113_225
*1433 FILLER_113_237
*1434 FILLER_113_249
*1435 FILLER_113_261
*1436 FILLER_113_27
*1437 FILLER_113_273
*1438 FILLER_113_279
*1439 FILLER_113_281
*1440 FILLER_113_293
*1441 FILLER_113_3
*1442 FILLER_113_305
*1443 FILLER_113_317
*1444 FILLER_113_329
*1445 FILLER_113_335
*1446 FILLER_113_337
*1447 FILLER_113_349
*1448 FILLER_113_361
*1449 FILLER_113_373
*1450 FILLER_113_385
*1451 FILLER_113_39
*1452 FILLER_113_391
*1453 FILLER_113_393
*1454 FILLER_113_405
*1455 FILLER_113_417
*1456 FILLER_113_429
*1457 FILLER_113_441
*1458 FILLER_113_447
*1459 FILLER_113_449
*1460 FILLER_113_461
*1461 FILLER_113_473
*1462 FILLER_113_485
*1463 FILLER_113_497
*1464 FILLER_113_503
*1465 FILLER_113_505
*1466 FILLER_113_51
*1467 FILLER_113_517
*1468 FILLER_113_529
*1469 FILLER_113_541
*1470 FILLER_113_55
*1471 FILLER_113_553
*1472 FILLER_113_559
*1473 FILLER_113_561
*1474 FILLER_113_57
*1475 FILLER_113_573
*1476 FILLER_113_585
*1477 FILLER_113_597
*1478 FILLER_113_609
*1479 FILLER_113_615
*1480 FILLER_113_617
*1481 FILLER_113_629
*1482 FILLER_113_641
*1483 FILLER_113_653
*1484 FILLER_113_665
*1485 FILLER_113_671
*1486 FILLER_113_673
*1487 FILLER_113_685
*1488 FILLER_113_69
*1489 FILLER_113_697
*1490 FILLER_113_709
*1491 FILLER_113_721
*1492 FILLER_113_727
*1493 FILLER_113_729
*1494 FILLER_113_81
*1495 FILLER_113_93
*1496 FILLER_114_109
*1497 FILLER_114_121
*1498 FILLER_114_133
*1499 FILLER_114_139
*1500 FILLER_114_141
*1501 FILLER_114_15
*1502 FILLER_114_153
*1503 FILLER_114_165
*1504 FILLER_114_177
*1505 FILLER_114_189
*1506 FILLER_114_195
*1507 FILLER_114_197
*1508 FILLER_114_209
*1509 FILLER_114_221
*1510 FILLER_114_233
*1511 FILLER_114_245
*1512 FILLER_114_251
*1513 FILLER_114_253
*1514 FILLER_114_265
*1515 FILLER_114_27
*1516 FILLER_114_277
*1517 FILLER_114_289
*1518 FILLER_114_29
*1519 FILLER_114_3
*1520 FILLER_114_301
*1521 FILLER_114_307
*1522 FILLER_114_309
*1523 FILLER_114_321
*1524 FILLER_114_333
*1525 FILLER_114_345
*1526 FILLER_114_357
*1527 FILLER_114_363
*1528 FILLER_114_365
*1529 FILLER_114_377
*1530 FILLER_114_389
*1531 FILLER_114_401
*1532 FILLER_114_41
*1533 FILLER_114_413
*1534 FILLER_114_419
*1535 FILLER_114_421
*1536 FILLER_114_433
*1537 FILLER_114_445
*1538 FILLER_114_457
*1539 FILLER_114_469
*1540 FILLER_114_475
*1541 FILLER_114_477
*1542 FILLER_114_489
*1543 FILLER_114_501
*1544 FILLER_114_513
*1545 FILLER_114_525
*1546 FILLER_114_53
*1547 FILLER_114_531
*1548 FILLER_114_533
*1549 FILLER_114_545
*1550 FILLER_114_557