*SPEF "ieee 1481-1999"
*DESIGN "wrapped_etpu"
*DATE "11:11:11 Fri 11 11, 1111"
*VENDOR "OpenRCX"
*PROGRAM "Parallel Extraction"
*VERSION "1.0"
*DESIGN_FLOW "NAME_SCOPE LOCAL" "PIN_CAP NONE"
*DIVIDER /
*DELIMITER :
*BUS_DELIMITER []
*T_UNIT 1 NS
*C_UNIT 1 PF
*R_UNIT 1 OHM
*L_UNIT 1 HENRY

*NAME_MAP
*1 active
*2 io_in[0]
*3 io_in[10]
*4 io_in[11]
*5 io_in[12]
*6 io_in[13]
*7 io_in[14]
*8 io_in[15]
*9 io_in[16]
*10 io_in[17]
*11 io_in[18]
*12 io_in[19]
*13 io_in[1]
*14 io_in[20]
*15 io_in[21]
*16 io_in[22]
*17 io_in[23]
*18 io_in[24]
*19 io_in[25]
*20 io_in[26]
*21 io_in[27]
*22 io_in[28]
*23 io_in[29]
*24 io_in[2]
*25 io_in[30]
*26 io_in[31]
*27 io_in[32]
*28 io_in[33]
*29 io_in[34]
*30 io_in[35]
*31 io_in[36]
*32 io_in[37]
*33 io_in[3]
*34 io_in[4]
*35 io_in[5]
*36 io_in[6]
*37 io_in[7]
*38 io_in[8]
*39 io_in[9]
*40 io_oeb[0]
*41 io_oeb[10]
*42 io_oeb[11]
*43 io_oeb[12]
*44 io_oeb[13]
*45 io_oeb[14]
*46 io_oeb[15]
*47 io_oeb[16]
*48 io_oeb[17]
*49 io_oeb[18]
*50 io_oeb[19]
*51 io_oeb[1]
*52 io_oeb[20]
*53 io_oeb[21]
*54 io_oeb[22]
*55 io_oeb[23]
*56 io_oeb[24]
*57 io_oeb[25]
*58 io_oeb[26]
*59 io_oeb[27]
*60 io_oeb[28]
*61 io_oeb[29]
*62 io_oeb[2]
*63 io_oeb[30]
*64 io_oeb[31]
*65 io_oeb[32]
*66 io_oeb[33]
*67 io_oeb[34]
*68 io_oeb[35]
*69 io_oeb[36]
*70 io_oeb[37]
*71 io_oeb[3]
*72 io_oeb[4]
*73 io_oeb[5]
*74 io_oeb[6]
*75 io_oeb[7]
*76 io_oeb[8]
*77 io_oeb[9]
*78 io_out[0]
*79 io_out[10]
*80 io_out[11]
*81 io_out[12]
*82 io_out[13]
*83 io_out[14]
*84 io_out[15]
*85 io_out[16]
*86 io_out[17]
*87 io_out[18]
*88 io_out[19]
*89 io_out[1]
*90 io_out[20]
*91 io_out[21]
*92 io_out[22]
*93 io_out[23]
*94 io_out[24]
*95 io_out[25]
*96 io_out[26]
*97 io_out[27]
*98 io_out[28]
*99 io_out[29]
*100 io_out[2]
*101 io_out[30]
*102 io_out[31]
*103 io_out[32]
*104 io_out[33]
*105 io_out[34]
*106 io_out[35]
*107 io_out[36]
*108 io_out[37]
*109 io_out[3]
*110 io_out[4]
*111 io_out[5]
*112 io_out[6]
*113 io_out[7]
*114 io_out[8]
*115 io_out[9]
*118 wb_clk_i
*119 wb_rst_i
*120 wbs_ack_o
*121 wbs_adr_i[0]
*122 wbs_adr_i[10]
*123 wbs_adr_i[11]
*124 wbs_adr_i[12]
*125 wbs_adr_i[13]
*126 wbs_adr_i[14]
*127 wbs_adr_i[15]
*128 wbs_adr_i[16]
*129 wbs_adr_i[17]
*130 wbs_adr_i[18]
*131 wbs_adr_i[19]
*132 wbs_adr_i[1]
*133 wbs_adr_i[20]
*134 wbs_adr_i[21]
*135 wbs_adr_i[22]
*136 wbs_adr_i[23]
*137 wbs_adr_i[24]
*138 wbs_adr_i[25]
*139 wbs_adr_i[26]
*140 wbs_adr_i[27]
*141 wbs_adr_i[28]
*142 wbs_adr_i[29]
*143 wbs_adr_i[2]
*144 wbs_adr_i[30]
*145 wbs_adr_i[31]
*146 wbs_adr_i[3]
*147 wbs_adr_i[4]
*148 wbs_adr_i[5]
*149 wbs_adr_i[6]
*150 wbs_adr_i[7]
*151 wbs_adr_i[8]
*152 wbs_adr_i[9]
*153 wbs_cyc_i
*154 wbs_dat_i[0]
*155 wbs_dat_i[10]
*156 wbs_dat_i[11]
*157 wbs_dat_i[12]
*158 wbs_dat_i[13]
*159 wbs_dat_i[14]
*160 wbs_dat_i[15]
*161 wbs_dat_i[16]
*162 wbs_dat_i[17]
*163 wbs_dat_i[18]
*164 wbs_dat_i[19]
*165 wbs_dat_i[1]
*166 wbs_dat_i[20]
*167 wbs_dat_i[21]
*168 wbs_dat_i[22]
*169 wbs_dat_i[23]
*170 wbs_dat_i[24]
*171 wbs_dat_i[25]
*172 wbs_dat_i[26]
*173 wbs_dat_i[27]
*174 wbs_dat_i[28]
*175 wbs_dat_i[29]
*176 wbs_dat_i[2]
*177 wbs_dat_i[30]
*178 wbs_dat_i[31]
*179 wbs_dat_i[3]
*180 wbs_dat_i[4]
*181 wbs_dat_i[5]
*182 wbs_dat_i[6]
*183 wbs_dat_i[7]
*184 wbs_dat_i[8]
*185 wbs_dat_i[9]
*186 wbs_dat_o[0]
*187 wbs_dat_o[10]
*188 wbs_dat_o[11]
*189 wbs_dat_o[12]
*190 wbs_dat_o[13]
*191 wbs_dat_o[14]
*192 wbs_dat_o[15]
*193 wbs_dat_o[16]
*194 wbs_dat_o[17]
*195 wbs_dat_o[18]
*196 wbs_dat_o[19]
*197 wbs_dat_o[1]
*198 wbs_dat_o[20]
*199 wbs_dat_o[21]
*200 wbs_dat_o[22]
*201 wbs_dat_o[23]
*202 wbs_dat_o[24]
*203 wbs_dat_o[25]
*204 wbs_dat_o[26]
*205 wbs_dat_o[27]
*206 wbs_dat_o[28]
*207 wbs_dat_o[29]
*208 wbs_dat_o[2]
*209 wbs_dat_o[30]
*210 wbs_dat_o[31]
*211 wbs_dat_o[3]
*212 wbs_dat_o[4]
*213 wbs_dat_o[5]
*214 wbs_dat_o[6]
*215 wbs_dat_o[7]
*216 wbs_dat_o[8]
*217 wbs_dat_o[9]
*218 wbs_sel_i[0]
*219 wbs_sel_i[1]
*220 wbs_sel_i[2]
*221 wbs_sel_i[3]
*222 wbs_stb_i
*223 wbs_we_i
*224 _000_
*225 _001_
*226 _002_
*227 _003_
*228 _004_
*229 _005_
*230 _006_
*231 _007_
*232 _008_
*233 _009_
*234 _010_
*235 _011_
*236 _012_
*237 _013_
*238 _014_
*239 _015_
*240 _016_
*241 _017_
*242 _018_
*243 _019_
*244 _020_
*245 _021_
*246 _022_
*247 _023_
*248 _024_
*249 _025_
*250 _026_
*251 _027_
*252 _028_
*253 _029_
*254 _030_
*255 _031_
*256 _032_
*257 _033_
*258 _034_
*259 _035_
*260 _036_
*261 _037_
*262 _038_
*263 _039_
*264 _040_
*265 _041_
*266 _042_
*267 _043_
*268 _044_
*269 _045_
*270 _046_
*271 _047_
*272 _048_
*273 _049_
*274 _050_
*275 _051_
*276 _052_
*277 _053_
*278 _054_
*279 _055_
*280 _056_
*281 _057_
*282 _058_
*283 _059_
*284 _060_
*285 _061_
*286 _062_
*287 _063_
*288 _064_
*289 _065_
*290 _066_
*291 _067_
*292 _068_
*293 _069_
*294 _070_
*295 _071_
*296 _072_
*297 _073_
*298 _074_
*299 _075_
*300 _076_
*301 _077_
*302 _078_
*303 _079_
*304 _080_
*305 _081_
*306 _082_
*307 _083_
*308 _084_
*309 _085_
*310 _086_
*311 _087_
*312 _088_
*313 _089_
*314 _090_
*315 _091_
*316 _092_
*317 _093_
*318 _094_
*319 _095_
*320 _096_
*321 _097_
*322 _098_
*323 _099_
*324 _100_
*325 _101_
*326 _102_
*327 _103_
*328 _104_
*329 _105_
*330 _106_
*331 _107_
*332 _108_
*333 _109_
*334 _110_
*335 _111_
*336 _112_
*337 _113_
*338 _114_
*339 _115_
*340 _116_
*341 _117_
*342 _118_
*343 _119_
*344 _120_
*345 _121_
*346 _122_
*347 _123_
*348 _124_
*349 _125_
*350 _126_
*351 _127_
*352 _128_
*353 _129_
*354 _130_
*355 _131_
*356 _132_
*357 _133_
*358 _134_
*359 _135_
*360 _136_
*361 _137_
*362 _138_
*363 _139_
*364 _140_
*365 _141_
*366 _142_
*367 _143_
*368 _144_
*369 _145_
*370 _146_
*371 etpu\.caravel_wb_ack_o
*372 net1
*373 net10
*374 net100
*375 net101
*376 net102
*377 net103
*378 net104
*379 net105
*380 net106
*381 net107
*382 net108
*383 net109
*384 net11
*385 net110
*386 net111
*387 net112
*388 net113
*389 net114
*390 net115
*391 net116
*392 net117
*393 net118
*394 net119
*395 net12
*396 net120
*397 net121
*398 net122
*399 net123
*400 net124
*401 net125
*402 net126
*403 net127
*404 net128
*405 net129
*406 net13
*407 net130
*408 net131
*409 net132
*410 net133
*411 net134
*412 net135
*413 net136
*414 net137
*415 net138
*416 net139
*417 net14
*418 net140
*419 net141
*420 net142
*421 net143
*422 net15
*423 net16
*424 net17
*425 net18
*426 net19
*427 net2
*428 net20
*429 net21
*430 net22
*431 net23
*432 net24
*433 net25
*434 net26
*435 net27
*436 net28
*437 net29
*438 net3
*439 net30
*440 net31
*441 net32
*442 net33
*443 net34
*444 net35
*445 net36
*446 net37
*447 net38
*448 net39
*449 net4
*450 net40
*451 net41
*452 net42
*453 net43
*454 net44
*455 net45
*456 net46
*457 net47
*458 net48
*459 net49
*460 net5
*461 net50
*462 net51
*463 net52
*464 net53
*465 net54
*466 net55
*467 net56
*468 net57
*469 net58
*470 net59
*471 net6
*472 net60
*473 net61
*474 net62
*475 net63
*476 net64
*477 net65
*478 net66
*479 net67
*480 net68
*481 net69
*482 net7
*483 net70
*484 net71
*485 net72
*486 net73
*487 net74
*488 net75
*489 net76
*490 net77
*491 net78
*492 net79
*493 net8
*494 net80
*495 net81
*496 net82
*497 net83
*498 net84
*499 net85
*500 net86
*501 net87
*502 net88
*503 net89
*504 net9
*505 net90
*506 net91
*507 net92
*508 net93
*509 net94
*510 net95
*511 net96
*512 net97
*513 net98
*514 net99
*515 ANTENNA_0
*516 ANTENNA_1
*517 ANTENNA_2
*518 ANTENNA_3
*519 ANTENNA_4
*520 ANTENNA_5
*521 ANTENNA_6
*522 ANTENNA_7
*523 ANTENNA_8
*524 FILLER_0_109
*525 FILLER_0_113
*526 FILLER_0_125
*527 FILLER_0_137
*528 FILLER_0_141
*529 FILLER_0_15
*530 FILLER_0_153
*531 FILLER_0_165
*532 FILLER_0_169
*533 FILLER_0_177
*534 FILLER_0_182
*535 FILLER_0_194
*536 FILLER_0_197
*537 FILLER_0_209
*538 FILLER_0_221
*539 FILLER_0_229
*540 FILLER_0_241
*541 FILLER_0_249
*542 FILLER_0_253
*543 FILLER_0_265
*544 FILLER_0_27
*545 FILLER_0_277
*546 FILLER_0_281
*547 FILLER_0_287
*548 FILLER_0_29
*549 FILLER_0_295
*550 FILLER_0_3
*551 FILLER_0_303
*552 FILLER_0_307
*553 FILLER_0_309
*554 FILLER_0_321
*555 FILLER_0_333
*556 FILLER_0_337
*557 FILLER_0_345
*558 FILLER_0_357
*559 FILLER_0_363
*560 FILLER_0_365
*561 FILLER_0_377
*562 FILLER_0_389
*563 FILLER_0_39
*564 FILLER_0_393
*565 FILLER_0_405
*566 FILLER_0_417
*567 FILLER_0_421
*568 FILLER_0_433
*569 FILLER_0_445
*570 FILLER_0_449
*571 FILLER_0_459
*572 FILLER_0_471
*573 FILLER_0_475
*574 FILLER_0_477
*575 FILLER_0_489
*576 FILLER_0_501
*577 FILLER_0_505
*578 FILLER_0_51
*579 FILLER_0_517
*580 FILLER_0_529
*581 FILLER_0_533
*582 FILLER_0_545
*583 FILLER_0_55
*584 FILLER_0_557
*585 FILLER_0_561
*586 FILLER_0_57
*587 FILLER_0_573
*588 FILLER_0_585
*589 FILLER_0_589
*590 FILLER_0_597
*591 FILLER_0_604
*592 FILLER_0_617
*593 FILLER_0_629
*594 FILLER_0_641
*595 FILLER_0_645
*596 FILLER_0_657
*597 FILLER_0_669
*598 FILLER_0_673
*599 FILLER_0_685
*600 FILLER_0_69
*601 FILLER_0_697
*602 FILLER_0_701
*603 FILLER_0_711
*604 FILLER_0_717
*605 FILLER_0_724
*606 FILLER_0_729
*607 FILLER_0_81
*608 FILLER_0_85
*609 FILLER_0_97
*610 FILLER_100_109
*611 FILLER_100_121
*612 FILLER_100_13
*613 FILLER_100_133
*614 FILLER_100_139
*615 FILLER_100_141
*616 FILLER_100_153
*617 FILLER_100_165
*618 FILLER_100_177
*619 FILLER_100_189
*620 FILLER_100_195
*621 FILLER_100_197
*622 FILLER_100_209
*623 FILLER_100_221
*624 FILLER_100_233
*625 FILLER_100_245
*626 FILLER_100_25
*627 FILLER_100_251
*628 FILLER_100_253
*629 FILLER_100_265
*630 FILLER_100_277
*631 FILLER_100_289
*632 FILLER_100_29
*633 FILLER_100_3
*634 FILLER_100_300
*635 FILLER_100_309
*636 FILLER_100_321
*637 FILLER_100_333
*638 FILLER_100_345
*639 FILLER_100_357
*640 FILLER_100_363
*641 FILLER_100_365
*642 FILLER_100_377
*643 FILLER_100_389
*644 FILLER_100_401
*645 FILLER_100_41
*646 FILLER_100_413
*647 FILLER_100_419
*648 FILLER_100_421
*649 FILLER_100_433
*650 FILLER_100_445
*651 FILLER_100_457
*652 FILLER_100_469
*653 FILLER_100_475
*654 FILLER_100_477
*655 FILLER_100_489
*656 FILLER_100_501
*657 FILLER_100_528
*658 FILLER_100_53
*659 FILLER_100_536
*660 FILLER_100_548
*661 FILLER_100_560
*662 FILLER_100_572
*663 FILLER_100_584
*664 FILLER_100_589
*665 FILLER_100_601
*666 FILLER_100_613
*667 FILLER_100_619
*668 FILLER_100_623
*669 FILLER_100_635
*670 FILLER_100_643
*671 FILLER_100_645
*672 FILLER_100_65
*673 FILLER_100_657
*674 FILLER_100_669
*675 FILLER_100_681
*676 FILLER_100_693
*677 FILLER_100_699
*678 FILLER_100_701
*679 FILLER_100_713
*680 FILLER_100_721
*681 FILLER_100_729
*682 FILLER_100_77
*683 FILLER_100_83
*684 FILLER_100_85
*685 FILLER_100_97
*686 FILLER_101_105
*687 FILLER_101_111
*688 FILLER_101_113
*689 FILLER_101_125
*690 FILLER_101_137
*691 FILLER_101_149
*692 FILLER_101_15
*693 FILLER_101_161
*694 FILLER_101_167
*695 FILLER_101_169
*696 FILLER_101_181
*697 FILLER_101_193
*698 FILLER_101_205
*699 FILLER_101_217
*700 FILLER_101_223
*701 FILLER_101_225
*702 FILLER_101_237
*703 FILLER_101_249
*704 FILLER_101_261
*705 FILLER_101_27
*706 FILLER_101_273
*707 FILLER_101_279
*708 FILLER_101_281
*709 FILLER_101_293
*710 FILLER_101_3
*711 FILLER_101_305
*712 FILLER_101_317
*713 FILLER_101_329
*714 FILLER_101_335
*715 FILLER_101_337
*716 FILLER_101_349
*717 FILLER_101_361
*718 FILLER_101_373
*719 FILLER_101_385
*720 FILLER_101_39
*721 FILLER_101_391
*722 FILLER_101_393
*723 FILLER_101_405
*724 FILLER_101_417
*725 FILLER_101_429
*726 FILLER_101_441
*727 FILLER_101_447
*728 FILLER_101_449
*729 FILLER_101_461
*730 FILLER_101_473
*731 FILLER_101_485
*732 FILLER_101_497
*733 FILLER_101_503
*734 FILLER_101_505
*735 FILLER_101_509
*736 FILLER_101_51
*737 FILLER_101_513
*738 FILLER_101_525
*739 FILLER_101_537
*740 FILLER_101_549
*741 FILLER_101_55
*742 FILLER_101_557
*743 FILLER_101_561
*744 FILLER_101_57
*745 FILLER_101_573
*746 FILLER_101_585
*747 FILLER_101_597
*748 FILLER_101_609
*749 FILLER_101_615
*750 FILLER_101_617
*751 FILLER_101_629
*752 FILLER_101_641
*753 FILLER_101_653
*754 FILLER_101_665
*755 FILLER_101_671
*756 FILLER_101_673
*757 FILLER_101_685
*758 FILLER_101_69
*759 FILLER_101_697
*760 FILLER_101_709
*761 FILLER_101_721
*762 FILLER_101_727
*763 FILLER_101_729
*764 FILLER_101_81
*765 FILLER_101_93
*766 FILLER_102_109
*767 FILLER_102_121
*768 FILLER_102_133
*769 FILLER_102_139
*770 FILLER_102_141
*771 FILLER_102_15
*772 FILLER_102_153
*773 FILLER_102_165
*774 FILLER_102_177
*775 FILLER_102_189
*776 FILLER_102_195
*777 FILLER_102_197
*778 FILLER_102_209
*779 FILLER_102_221
*780 FILLER_102_233
*781 FILLER_102_245
*782 FILLER_102_251
*783 FILLER_102_253
*784 FILLER_102_265
*785 FILLER_102_27
*786 FILLER_102_277
*787 FILLER_102_289
*788 FILLER_102_29
*789 FILLER_102_3
*790 FILLER_102_301
*791 FILLER_102_307
*792 FILLER_102_309
*793 FILLER_102_321
*794 FILLER_102_333
*795 FILLER_102_345
*796 FILLER_102_357
*797 FILLER_102_363
*798 FILLER_102_365
*799 FILLER_102_377
*800 FILLER_102_389
*801 FILLER_102_401
*802 FILLER_102_41
*803 FILLER_102_413
*804 FILLER_102_419
*805 FILLER_102_421
*806 FILLER_102_433
*807 FILLER_102_445
*808 FILLER_102_457
*809 FILLER_102_469
*810 FILLER_102_475
*811 FILLER_102_477
*812 FILLER_102_489
*813 FILLER_102_501
*814 FILLER_102_513
*815 FILLER_102_525
*816 FILLER_102_53
*817 FILLER_102_531
*818 FILLER_102_533
*819 FILLER_102_545
*820 FILLER_102_557
*821 FILLER_102_569
*822 FILLER_102_581
*823 FILLER_102_587
*824 FILLER_102_589
*825 FILLER_102_601
*826 FILLER_102_613
*827 FILLER_102_625
*828 FILLER_102_637
*829 FILLER_102_643
*830 FILLER_102_645
*831 FILLER_102_65
*832 FILLER_102_657
*833 FILLER_102_669
*834 FILLER_102_681
*835 FILLER_102_693
*836 FILLER_102_699
*837 FILLER_102_701
*838 FILLER_102_713
*839 FILLER_102_725
*840 FILLER_102_77
*841 FILLER_102_83
*842 FILLER_102_85
*843 FILLER_102_97
*844 FILLER_103_101
*845 FILLER_103_109
*846 FILLER_103_113
*847 FILLER_103_125
*848 FILLER_103_137
*849 FILLER_103_149
*850 FILLER_103_15
*851 FILLER_103_161
*852 FILLER_103_167
*853 FILLER_103_169
*854 FILLER_103_181
*855 FILLER_103_193
*856 FILLER_103_205
*857 FILLER_103_217
*858 FILLER_103_223
*859 FILLER_103_225
*860 FILLER_103_237
*861 FILLER_103_249
*862 FILLER_103_261
*863 FILLER_103_27
*864 FILLER_103_273
*865 FILLER_103_279
*866 FILLER_103_281
*867 FILLER_103_293
*868 FILLER_103_3
*869 FILLER_103_305
*870 FILLER_103_317
*871 FILLER_103_329
*872 FILLER_103_335
*873 FILLER_103_337
*874 FILLER_103_349
*875 FILLER_103_361
*876 FILLER_103_373
*877 FILLER_103_385
*878 FILLER_103_39
*879 FILLER_103_391
*880 FILLER_103_393
*881 FILLER_103_405
*882 FILLER_103_417
*883 FILLER_103_429
*884 FILLER_103_441
*885 FILLER_103_447
*886 FILLER_103_449
*887 FILLER_103_461
*888 FILLER_103_473
*889 FILLER_103_485
*890 FILLER_103_497
*891 FILLER_103_503
*892 FILLER_103_505
*893 FILLER_103_51
*894 FILLER_103_517
*895 FILLER_103_529
*896 FILLER_103_541
*897 FILLER_103_55
*898 FILLER_103_553
*899 FILLER_103_559
*900 FILLER_103_564
*901 FILLER_103_57
*902 FILLER_103_576
*903 FILLER_103_588
*904 FILLER_103_600
*905 FILLER_103_609
*906 FILLER_103_615
*907 FILLER_103_617
*908 FILLER_103_629
*909 FILLER_103_641
*910 FILLER_103_653
*911 FILLER_103_665
*912 FILLER_103_671
*913 FILLER_103_673
*914 FILLER_103_685
*915 FILLER_103_69
*916 FILLER_103_697
*917 FILLER_103_709
*918 FILLER_103_721
*919 FILLER_103_727
*920 FILLER_103_729
*921 FILLER_103_81
*922 FILLER_103_93
*923 FILLER_103_97
*924 FILLER_104_114
*925 FILLER_104_126
*926 FILLER_104_138
*927 FILLER_104_141
*928 FILLER_104_15
*929 FILLER_104_153
*930 FILLER_104_165
*931 FILLER_104_177
*932 FILLER_104_189
*933 FILLER_104_195
*934 FILLER_104_197
*935 FILLER_104_210
*936 FILLER_104_222
*937 FILLER_104_234
*938 FILLER_104_246
*939 FILLER_104_253
*940 FILLER_104_265
*941 FILLER_104_27
*942 FILLER_104_277
*943 FILLER_104_289
*944 FILLER_104_29
*945 FILLER_104_3
*946 FILLER_104_301
*947 FILLER_104_307
*948 FILLER_104_309
*949 FILLER_104_321
*950 FILLER_104_333
*951 FILLER_104_345
*952 FILLER_104_357
*953 FILLER_104_363
*954 FILLER_104_365
*955 FILLER_104_377
*956 FILLER_104_389
*957 FILLER_104_401
*958 FILLER_104_41
*959 FILLER_104_413
*960 FILLER_104_419
*961 FILLER_104_421
*962 FILLER_104_433
*963 FILLER_104_445
*964 FILLER_104_457
*965 FILLER_104_465
*966 FILLER_104_470
*967 FILLER_104_477
*968 FILLER_104_489
*969 FILLER_104_501
*970 FILLER_104_513
*971 FILLER_104_525
*972 FILLER_104_53
*973 FILLER_104_531
*974 FILLER_104_533
*975 FILLER_104_545
*976 FILLER_104_552
*977 FILLER_104_577
*978 FILLER_104_585
*979 FILLER_104_589
*980 FILLER_104_601
*981 FILLER_104_628
*982 FILLER_104_640
*983 FILLER_104_645
*984 FILLER_104_65
*985 FILLER_104_657
*986 FILLER_104_669
*987 FILLER_104_681
*988 FILLER_104_693
*989 FILLER_104_699
*990 FILLER_104_701
*991 FILLER_104_713
*992 FILLER_104_725
*993 FILLER_104_77
*994 FILLER_104_83
*995 FILLER_104_85
*996 FILLER_105_108
*997 FILLER_105_113
*998 FILLER_105_125
*999 FILLER_105_137
*1000 FILLER_105_149
*1001 FILLER_105_15
*1002 FILLER_105_161
*1003 FILLER_105_167
*1004 FILLER_105_169
*1005 FILLER_105_181
*1006 FILLER_105_193
*1007 FILLER_105_205
*1008 FILLER_105_217
*1009 FILLER_105_223
*1010 FILLER_105_225
*1011 FILLER_105_237
*1012 FILLER_105_249
*1013 FILLER_105_261
*1014 FILLER_105_27
*1015 FILLER_105_273
*1016 FILLER_105_279
*1017 FILLER_105_281
*1018 FILLER_105_293
*1019 FILLER_105_3
*1020 FILLER_105_305
*1021 FILLER_105_317
*1022 FILLER_105_329
*1023 FILLER_105_335
*1024 FILLER_105_337
*1025 FILLER_105_349
*1026 FILLER_105_361
*1027 FILLER_105_373
*1028 FILLER_105_385
*1029 FILLER_105_39
*1030 FILLER_105_391
*1031 FILLER_105_393
*1032 FILLER_105_405
*1033 FILLER_105_417
*1034 FILLER_105_429
*1035 FILLER_105_441
*1036 FILLER_105_447
*1037 FILLER_105_449
*1038 FILLER_105_461
*1039 FILLER_105_467
*1040 FILLER_105_489
*1041 FILLER_105_501
*1042 FILLER_105_505
*1043 FILLER_105_51
*1044 FILLER_105_517
*1045 FILLER_105_529
*1046 FILLER_105_541
*1047 FILLER_105_55
*1048 FILLER_105_553
*1049 FILLER_105_559
*1050 FILLER_105_561
*1051 FILLER_105_57
*1052 FILLER_105_573
*1053 FILLER_105_585
*1054 FILLER_105_597
*1055 FILLER_105_605
*1056 FILLER_105_610
*1057 FILLER_105_617
*1058 FILLER_105_629
*1059 FILLER_105_641
*1060 FILLER_105_653
*1061 FILLER_105_665
*1062 FILLER_105_671
*1063 FILLER_105_673
*1064 FILLER_105_685
*1065 FILLER_105_69
*1066 FILLER_105_697
*1067 FILLER_105_709
*1068 FILLER_105_717
*1069 FILLER_105_724
*1070 FILLER_105_729
*1071 FILLER_105_81
*1072 FILLER_105_96
*1073 FILLER_106_109
*1074 FILLER_106_121
*1075 FILLER_106_133
*1076 FILLER_106_139
*1077 FILLER_106_141
*1078 FILLER_106_15
*1079 FILLER_106_153
*1080 FILLER_106_165
*1081 FILLER_106_177
*1082 FILLER_106_189
*1083 FILLER_106_195
*1084 FILLER_106_197
*1085 FILLER_106_209
*1086 FILLER_106_221
*1087 FILLER_106_233
*1088 FILLER_106_245
*1089 FILLER_106_251
*1090 FILLER_106_253
*1091 FILLER_106_265
*1092 FILLER_106_27
*1093 FILLER_106_277
*1094 FILLER_106_289
*1095 FILLER_106_29
*1096 FILLER_106_3
*1097 FILLER_106_301
*1098 FILLER_106_307
*1099 FILLER_106_309
*1100 FILLER_106_321
*1101 FILLER_106_333
*1102 FILLER_106_345
*1103 FILLER_106_357
*1104 FILLER_106_363
*1105 FILLER_106_365
*1106 FILLER_106_377
*1107 FILLER_106_389
*1108 FILLER_106_401
*1109 FILLER_106_41
*1110 FILLER_106_413
*1111 FILLER_106_419
*1112 FILLER_106_421
*1113 FILLER_106_433
*1114 FILLER_106_445
*1115 FILLER_106_457
*1116 FILLER_106_472
*1117 FILLER_106_477
*1118 FILLER_106_489
*1119 FILLER_106_501
*1120 FILLER_106_513
*1121 FILLER_106_525
*1122 FILLER_106_53
*1123 FILLER_106_531
*1124 FILLER_106_533
*1125 FILLER_106_545
*1126 FILLER_106_557
*1127 FILLER_106_569
*1128 FILLER_106_581
*1129 FILLER_106_587
*1130 FILLER_106_589
*1131 FILLER_106_601
*1132 FILLER_106_613
*1133 FILLER_106_625
*1134 FILLER_106_637
*1135 FILLER_106_643
*1136 FILLER_106_645
*1137 FILLER_106_65
*1138 FILLER_106_657
*1139 FILLER_106_669
*1140 FILLER_106_681
*1141 FILLER_106_693
*1142 FILLER_106_699
*1143 FILLER_106_701
*1144 FILLER_106_713
*1145 FILLER_106_725
*1146 FILLER_106_77
*1147 FILLER_106_83
*1148 FILLER_106_85
*1149 FILLER_106_97
*1150 FILLER_107_108
*1151 FILLER_107_113
*1152 FILLER_107_125
*1153 FILLER_107_13
*1154 FILLER_107_137
*1155 FILLER_107_149
*1156 FILLER_107_161
*1157 FILLER_107_167
*1158 FILLER_107_169
*1159 FILLER_107_181
*1160 FILLER_107_193
*1161 FILLER_107_205
*1162 FILLER_107_217
*1163 FILLER_107_223
*1164 FILLER_107_225
*1165 FILLER_107_237
*1166 FILLER_107_249
*1167 FILLER_107_25
*1168 FILLER_107_261
*1169 FILLER_107_273
*1170 FILLER_107_279
*1171 FILLER_107_281
*1172 FILLER_107_293
*1173 FILLER_107_305
*1174 FILLER_107_317
*1175 FILLER_107_329
*1176 FILLER_107_335
*1177 FILLER_107_337
*1178 FILLER_107_349
*1179 FILLER_107_361
*1180 FILLER_107_37
*1181 FILLER_107_373
*1182 FILLER_107_385
*1183 FILLER_107_391
*1184 FILLER_107_393
*1185 FILLER_107_405
*1186 FILLER_107_417
*1187 FILLER_107_429
*1188 FILLER_107_441
*1189 FILLER_107_447
*1190 FILLER_107_449
*1191 FILLER_107_461
*1192 FILLER_107_473
*1193 FILLER_107_485
*1194 FILLER_107_49
*1195 FILLER_107_497
*1196 FILLER_107_503
*1197 FILLER_107_505
*1198 FILLER_107_517
*1199 FILLER_107_529
*1200 FILLER_107_541
*1201 FILLER_107_55
*1202 FILLER_107_553
*1203 FILLER_107_559
*1204 FILLER_107_561
*1205 FILLER_107_57
*1206 FILLER_107_573
*1207 FILLER_107_585
*1208 FILLER_107_597
*1209 FILLER_107_609
*1210 FILLER_107_615
*1211 FILLER_107_617
*1212 FILLER_107_629
*1213 FILLER_107_641
*1214 FILLER_107_653
*1215 FILLER_107_665
*1216 FILLER_107_671
*1217 FILLER_107_673
*1218 FILLER_107_685
*1219 FILLER_107_69
*1220 FILLER_107_697
*1221 FILLER_107_709
*1222 FILLER_107_721
*1223 FILLER_107_727
*1224 FILLER_107_729
*1225 FILLER_107_81
*1226 FILLER_107_93
*1227 FILLER_108_101
*1228 FILLER_108_123
*1229 FILLER_108_135
*1230 FILLER_108_139
*1231 FILLER_108_141
*1232 FILLER_108_15
*1233 FILLER_108_153
*1234 FILLER_108_165
*1235 FILLER_108_177
*1236 FILLER_108_189
*1237 FILLER_108_195
*1238 FILLER_108_197
*1239 FILLER_108_209
*1240 FILLER_108_221
*1241 FILLER_108_233
*1242 FILLER_108_245
*1243 FILLER_108_251
*1244 FILLER_108_253
*1245 FILLER_108_265
*1246 FILLER_108_27
*1247 FILLER_108_277
*1248 FILLER_108_289
*1249 FILLER_108_29
*1250 FILLER_108_3
*1251 FILLER_108_301
*1252 FILLER_108_307
*1253 FILLER_108_309
*1254 FILLER_108_321
*1255 FILLER_108_333
*1256 FILLER_108_345
*1257 FILLER_108_349
*1258 FILLER_108_356
*1259 FILLER_108_365
*1260 FILLER_108_377
*1261 FILLER_108_389
*1262 FILLER_108_401
*1263 FILLER_108_41
*1264 FILLER_108_413
*1265 FILLER_108_419
*1266 FILLER_108_421
*1267 FILLER_108_433
*1268 FILLER_108_445
*1269 FILLER_108_457
*1270 FILLER_108_469
*1271 FILLER_108_475
*1272 FILLER_108_477
*1273 FILLER_108_489
*1274 FILLER_108_501
*1275 FILLER_108_513
*1276 FILLER_108_525
*1277 FILLER_108_53
*1278 FILLER_108_531
*1279 FILLER_108_533
*1280 FILLER_108_545
*1281 FILLER_108_557
*1282 FILLER_108_569
*1283 FILLER_108_581
*1284 FILLER_108_587
*1285 FILLER_108_589
*1286 FILLER_108_601
*1287 FILLER_108_613
*1288 FILLER_108_625
*1289 FILLER_108_637
*1290 FILLER_108_643
*1291 FILLER_108_645
*1292 FILLER_108_65
*1293 FILLER_108_657
*1294 FILLER_108_669
*1295 FILLER_108_681
*1296 FILLER_108_693
*1297 FILLER_108_699
*1298 FILLER_108_701
*1299 FILLER_108_713
*1300 FILLER_108_725
*1301 FILLER_108_77
*1302 FILLER_108_83
*1303 FILLER_108_85
*1304 FILLER_108_97
*1305 FILLER_109_101
*1306 FILLER_109_106
*1307 FILLER_109_113
*1308 FILLER_109_125
*1309 FILLER_109_137
*1310 FILLER_109_149
*1311 FILLER_109_15
*1312 FILLER_109_161
*1313 FILLER_109_167
*1314 FILLER_109_169
*1315 FILLER_109_181
*1316 FILLER_109_193
*1317 FILLER_109_205
*1318 FILLER_109_217
*1319 FILLER_109_223
*1320 FILLER_109_225
*1321 FILLER_109_237
*1322 FILLER_109_249
*1323 FILLER_109_261
*1324 FILLER_109_27
*1325 FILLER_109_273
*1326 FILLER_109_279
*1327 FILLER_109_281
*1328 FILLER_109_293
*1329 FILLER_109_3
*1330 FILLER_109_305
*1331 FILLER_109_317
*1332 FILLER_109_329
*1333 FILLER_109_335
*1334 FILLER_109_337
*1335 FILLER_109_349
*1336 FILLER_109_361
*1337 FILLER_109_373
*1338 FILLER_109_385
*1339 FILLER_109_39
*1340 FILLER_109_391
*1341 FILLER_109_393
*1342 FILLER_109_405
*1343 FILLER_109_417
*1344 FILLER_109_429
*1345 FILLER_109_441
*1346 FILLER_109_447
*1347 FILLER_109_449
*1348 FILLER_109_461
*1349 FILLER_109_473
*1350 FILLER_109_485
*1351 FILLER_109_497
*1352 FILLER_109_503
*1353 FILLER_109_505
*1354 FILLER_109_51
*1355 FILLER_109_517
*1356 FILLER_109_532
*1357 FILLER_109_544
*1358 FILLER_109_55
*1359 FILLER_109_556
*1360 FILLER_109_561
*1361 FILLER_109_57
*1362 FILLER_109_573
*1363 FILLER_109_585
*1364 FILLER_109_597
*1365 FILLER_109_609
*1366 FILLER_109_615
*1367 FILLER_109_617
*1368 FILLER_109_629
*1369 FILLER_109_641
*1370 FILLER_109_653
*1371 FILLER_109_665
*1372 FILLER_109_671
*1373 FILLER_109_673
*1374 FILLER_109_685
*1375 FILLER_109_69
*1376 FILLER_109_697
*1377 FILLER_109_709
*1378 FILLER_109_721
*1379 FILLER_109_727
*1380 FILLER_109_729
*1381 FILLER_109_81
*1382 FILLER_109_93
*1383 FILLER_10_109
*1384 FILLER_10_121
*1385 FILLER_10_13
*1386 FILLER_10_133
*1387 FILLER_10_139
*1388 FILLER_10_141
*1389 FILLER_10_153
*1390 FILLER_10_165
*1391 FILLER_10_177
*1392 FILLER_10_189
*1393 FILLER_10_195
*1394 FILLER_10_197
*1395 FILLER_10_202
*1396 FILLER_10_214
*1397 FILLER_10_226
*1398 FILLER_10_238
*1399 FILLER_10_244
*1400 FILLER_10_248
*1401 FILLER_10_25
*1402 FILLER_10_274
*1403 FILLER_10_286
*1404 FILLER_10_29
*1405 FILLER_10_298
*1406 FILLER_10_3
*1407 FILLER_10_306
*1408 FILLER_10_309
*1409 FILLER_10_321
*1410 FILLER_10_333
*1411 FILLER_10_345
*1412 FILLER_10_357
*1413 FILLER_10_363
*1414 FILLER_10_365
*1415 FILLER_10_377
*1416 FILLER_10_389
*1417 FILLER_10_41
*1418 FILLER_10_416
*1419 FILLER_10_421
*1420 FILLER_10_433
*1421 FILLER_10_445
*1422 FILLER_10_457
*1423 FILLER_10_469
*1424 FILLER_10_475
*1425 FILLER_10_477
*1426 FILLER_10_489
*1427 FILLER_10_501
*1428 FILLER_10_513
*1429 FILLER_10_525
*1430 FILLER_10_53
*1431 FILLER_10_531
*1432 FILLER_10_533
*1433 FILLER_10_545
*1434 FILLER_10_557
*1435 FILLER_10_569
*1436 FILLER_10_581
*1437 FILLER_10_587
*1438 FILLER_10_589
*1439 FILLER_10_601
*1440 FILLER_10_613
*1441 FILLER_10_625
*1442 FILLER_10_637
*1443 FILLER_10_643
*1444 FILLER_10_645
*1445 FILLER_10_65
*1446 FILLER_10_657
*1447 FILLER_10_669
*1448 FILLER_10_681
*1449 FILLER_10_693
*1450 FILLER_10_699
*1451 FILLER_10_701
*1452 FILLER_10_713
*1453 FILLER_10_721
*1454 FILLER_10_729
*1455 FILLER_10_77
*1456 FILLER_10_83
*1457 FILLER_10_85
*1458 FILLER_10_97
*1459 FILLER_110_109
*1460 FILLER_110_121
*1461 FILLER_110_133
*1462 FILLER_110_139
*1463 FILLER_110_141
*1464 FILLER_110_15
*1465 FILLER_110_153
*1466 FILLER_110_165
*1467 FILLER_110_177
*1468 FILLER_110_189
*1469 FILLER_110_195
*1470 FILLER_110_197
*1471 FILLER_110_209
*1472 FILLER_110_221
*1473 FILLER_110_233
*1474 FILLER_110_245
*1475 FILLER_110_251
*1476 FILLER_110_253
*1477 FILLER_110_265
*1478 FILLER_110_27
*1479 FILLER_110_277
*1480 FILLER_110_289
*1481 FILLER_110_29
*1482 FILLER_110_3
*1483 FILLER_110_301
*1484 FILLER_110_307
*1485 FILLER_110_309
*1486 FILLER_110_321
*1487 FILLER_110_333
*1488 FILLER_110_345
*1489 FILLER_110_357
*1490 FILLER_110_363
*1491 FILLER_110_365
*1492 FILLER_110_377
*1493 FILLER_110_389
*1494 FILLER_110_401
*1495 FILLER_110_41
*1496 FILLER_110_413
*1497 FILLER_110_419
*1498 FILLER_110_421
*1499 FILLER_110_433
*1500 FILLER_110_445
*1501 FILLER_110_457
*1502 FILLER_110_469
*1503 FILLER_110_475
*1504 FILLER_110_477
*1505 FILLER_110_489
*1506 FILLER_110_501
*1507 FILLER_110_513
*1508 FILLER_110_528
*1509 FILLER_110_53
*1510 FILLER_110_554
*1511 FILLER_110_566
*1512 FILLER_110_578
*1513 FILLER_110_586
*1514 FILLER_110_589
*1515 FILLER_110_601
*1516 FILLER_110_613
*1517 FILLER_110_625
*1518 FILLER_110_637
*1519 FILLER_110_643
*1520 FILLER_110_645
*1521 FILLER_110_65
*1522 FILLER_110_657
*1523 FILLER_110_669
*1524 FILLER_110_681
*1525 FILLER_110_693
*1526 FILLER_110_699
*1527 FILLER_110_701
*1528 FILLER_110_713
*1529 FILLER_110_725
*1530 FILLER_110_77
*1531 FILLER_110_83
*1532 FILLER_110_85
*1533 FILLER_110_97
*1534 FILLER_111_105
*1535 FILLER_111_111
*1536 FILLER_111_113
*1537 FILLER_111_125
*1538 FILLER_111_137
*1539 FILLER_111_149
*1540 FILLER_111_15
*1541 FILLER_111_161
*1542 FILLER_111_167
*1543 FILLER_111_169
*1544 FILLER_111_181
*1545 FILLER_111_193
*1546 FILLER_111_205
*1547 FILLER_111_217
*1548 FILLER_111_223
*1549 FILLER_111_225
*1550 FILLER_111_237
*1551 FILLER_111_249
*1552 FILLER_111_261
*1553 FILLER_111_27
*1554 FILLER_111_273
*1555 FILLER_111_279
*1556 FILLER_111_281
*1557 FILLER_111_286
*1558 FILLER_111_298
*1559 FILLER_111_3
*1560 FILLER_111_310
*1561 FILLER_111_322
*1562 FILLER_111_334
*1563 FILLER_111_337
*1564 FILLER_111_349
*1565 FILLER_111_361
*1566 FILLER_111_373
*1567 FILLER_111_385
*1568 FILLER_111_39
*1569 FILLER_111_391
*1570 FILLER_111_393
*1571 FILLER_111_405
*1572 FILLER_111_417
*1573 FILLER_111_429
*1574 FILLER_111_441
*1575 FILLER_111_447
*1576 FILLER_111_449
*1577 FILLER_111_461
*1578 FILLER_111_473
*1579 FILLER_111_485
*1580 FILLER_111_497
*1581 FILLER_111_503
*1582 FILLER_111_505
*1583 FILLER_111_51
*1584 FILLER_111_517
*1585 FILLER_111_529
*1586 FILLER_111_541
*1587 FILLER_111_55
*1588 FILLER_111_553
*1589 FILLER_111_559
*1590 FILLER_111_561
*1591 FILLER_111_57
*1592 FILLER_111_573
*1593 FILLER_111_585
*1594 FILLER_111_597
*1595 FILLER_111_609
*1596 FILLER_111_615
*1597 FILLER_111_617
*1598 FILLER_111_629
*1599 FILLER_111_641
*1600 FILLER_111_653
*1601 FILLER_111_665
*1602 FILLER_111_671
*1603 FILLER_111_673
*1604 FILLER_111_685
*1605 FILLER_111_69
*1606 FILLER_111_697
*1607 FILLER_111_709
*1608 FILLER_111_721
*1609 FILLER_111_727
*1610 FILLER_111_729
*1611 FILLER_111_81
*1612 FILLER_111_93
*1613 FILLER_112_109
*1614 FILLER_112_121
*1615 FILLER_112_133
*1616 FILLER_112_139
*1617 FILLER_112_141
*1618 FILLER_112_153
*1619 FILLER_112_165
*1620 FILLER_112_177
*1621 FILLER_112_189
*1622 FILLER_112_195
*1623 FILLER_112_197
*1624 FILLER_112_21
*1625 FILLER_112_212
*1626 FILLER_112_224
*1627 FILLER_112_236
*1628 FILLER_112_248
*1629 FILLER_112_253
*1630 FILLER_112_265
*1631 FILLER_112_27
*1632 FILLER_112_277
*1633 FILLER_112_29
*1634 FILLER_112_304
*1635 FILLER_112_309
*1636 FILLER_112_321
*1637 FILLER_112_333
*1638 FILLER_112_345
*1639 FILLER_112_357
*1640 FILLER_112_363
*1641 FILLER_112_365
*1642 FILLER_112_377
*1643 FILLER_112_389
*1644 FILLER_112_401
*1645 FILLER_112_41
*1646 FILLER_112_413