*SPEF "ieee 1481-1999"
*DESIGN "wrapped_etpu"
*DATE "11:11:11 Fri 11 11, 1111"
*VENDOR "OpenRCX"
*PROGRAM "Parallel Extraction"
*VERSION "1.0"
*DESIGN_FLOW "NAME_SCOPE LOCAL" "PIN_CAP NONE"
*DIVIDER /
*DELIMITER :
*BUS_DELIMITER []
*T_UNIT 1 NS
*C_UNIT 1 PF
*R_UNIT 1 OHM
*L_UNIT 1 HENRY

*NAME_MAP
*1 active
*2 io_in[0]
*3 io_in[10]
*4 io_in[11]
*5 io_in[12]
*6 io_in[13]
*7 io_in[14]
*8 io_in[15]
*9 io_in[16]
*10 io_in[17]
*11 io_in[18]
*12 io_in[19]
*13 io_in[1]
*14 io_in[20]
*15 io_in[21]
*16 io_in[22]
*17 io_in[23]
*18 io_in[24]
*19 io_in[25]
*20 io_in[26]
*21 io_in[27]
*22 io_in[28]
*23 io_in[29]
*24 io_in[2]
*25 io_in[30]
*26 io_in[31]
*27 io_in[32]
*28 io_in[33]
*29 io_in[34]
*30 io_in[35]
*31 io_in[36]
*32 io_in[37]
*33 io_in[3]
*34 io_in[4]
*35 io_in[5]
*36 io_in[6]
*37 io_in[7]
*38 io_in[8]
*39 io_in[9]
*40 io_oeb[0]
*41 io_oeb[10]
*42 io_oeb[11]
*43 io_oeb[12]
*44 io_oeb[13]
*45 io_oeb[14]
*46 io_oeb[15]
*47 io_oeb[16]
*48 io_oeb[17]
*49 io_oeb[18]
*50 io_oeb[19]
*51 io_oeb[1]
*52 io_oeb[20]
*53 io_oeb[21]
*54 io_oeb[22]
*55 io_oeb[23]
*56 io_oeb[24]
*57 io_oeb[25]
*58 io_oeb[26]
*59 io_oeb[27]
*60 io_oeb[28]
*61 io_oeb[29]
*62 io_oeb[2]
*63 io_oeb[30]
*64 io_oeb[31]
*65 io_oeb[32]
*66 io_oeb[33]
*67 io_oeb[34]
*68 io_oeb[35]
*69 io_oeb[36]
*70 io_oeb[37]
*71 io_oeb[3]
*72 io_oeb[4]
*73 io_oeb[5]
*74 io_oeb[6]
*75 io_oeb[7]
*76 io_oeb[8]
*77 io_oeb[9]
*78 io_out[0]
*79 io_out[10]
*80 io_out[11]
*81 io_out[12]
*82 io_out[13]
*83 io_out[14]
*84 io_out[15]
*85 io_out[16]
*86 io_out[17]
*87 io_out[18]
*88 io_out[19]
*89 io_out[1]
*90 io_out[20]
*91 io_out[21]
*92 io_out[22]
*93 io_out[23]
*94 io_out[24]
*95 io_out[25]
*96 io_out[26]
*97 io_out[27]
*98 io_out[28]
*99 io_out[29]
*100 io_out[2]
*101 io_out[30]
*102 io_out[31]
*103 io_out[32]
*104 io_out[33]
*105 io_out[34]
*106 io_out[35]
*107 io_out[36]
*108 io_out[37]
*109 io_out[3]
*110 io_out[4]
*111 io_out[5]
*112 io_out[6]
*113 io_out[7]
*114 io_out[8]
*115 io_out[9]
*116 la1_data_in[0]
*117 la1_data_in[10]
*118 la1_data_in[11]
*119 la1_data_in[12]
*120 la1_data_in[13]
*121 la1_data_in[14]
*122 la1_data_in[15]
*123 la1_data_in[16]
*124 la1_data_in[17]
*125 la1_data_in[18]
*126 la1_data_in[19]
*127 la1_data_in[1]
*128 la1_data_in[20]
*129 la1_data_in[21]
*130 la1_data_in[22]
*131 la1_data_in[23]
*132 la1_data_in[24]
*133 la1_data_in[25]
*134 la1_data_in[26]
*135 la1_data_in[27]
*136 la1_data_in[28]
*137 la1_data_in[29]
*138 la1_data_in[2]
*139 la1_data_in[30]
*140 la1_data_in[31]
*141 la1_data_in[3]
*142 la1_data_in[4]
*143 la1_data_in[5]
*144 la1_data_in[6]
*145 la1_data_in[7]
*146 la1_data_in[8]
*147 la1_data_in[9]
*148 la1_data_out[0]
*149 la1_data_out[10]
*150 la1_data_out[11]
*151 la1_data_out[12]
*152 la1_data_out[13]
*153 la1_data_out[14]
*154 la1_data_out[15]
*155 la1_data_out[16]
*156 la1_data_out[17]
*157 la1_data_out[18]
*158 la1_data_out[19]
*159 la1_data_out[1]
*160 la1_data_out[20]
*161 la1_data_out[21]
*162 la1_data_out[22]
*163 la1_data_out[23]
*164 la1_data_out[24]
*165 la1_data_out[25]
*166 la1_data_out[26]
*167 la1_data_out[27]
*168 la1_data_out[28]
*169 la1_data_out[29]
*170 la1_data_out[2]
*171 la1_data_out[30]
*172 la1_data_out[31]
*173 la1_data_out[3]
*174 la1_data_out[4]
*175 la1_data_out[5]
*176 la1_data_out[6]
*177 la1_data_out[7]
*178 la1_data_out[8]
*179 la1_data_out[9]
*180 la1_oenb[0]
*181 la1_oenb[10]
*182 la1_oenb[11]
*183 la1_oenb[12]
*184 la1_oenb[13]
*185 la1_oenb[14]
*186 la1_oenb[15]
*187 la1_oenb[16]
*188 la1_oenb[17]
*189 la1_oenb[18]
*190 la1_oenb[19]
*191 la1_oenb[1]
*192 la1_oenb[20]
*193 la1_oenb[21]
*194 la1_oenb[22]
*195 la1_oenb[23]
*196 la1_oenb[24]
*197 la1_oenb[25]
*198 la1_oenb[26]
*199 la1_oenb[27]
*200 la1_oenb[28]
*201 la1_oenb[29]
*202 la1_oenb[2]
*203 la1_oenb[30]
*204 la1_oenb[31]
*205 la1_oenb[3]
*206 la1_oenb[4]
*207 la1_oenb[5]
*208 la1_oenb[6]
*209 la1_oenb[7]
*210 la1_oenb[8]
*211 la1_oenb[9]
*214 wb_clk_i
*215 _000_
*216 _001_
*217 _002_
*218 _003_
*219 _004_
*220 _005_
*221 _006_
*222 _007_
*223 _008_
*224 _009_
*225 _010_
*226 _011_
*227 _012_
*228 _013_
*229 _014_
*230 _015_
*231 _016_
*232 _017_
*233 _018_
*234 _019_
*235 _020_
*236 _021_
*237 _022_
*238 _023_
*239 _024_
*240 _025_
*241 _026_
*242 _027_
*243 _028_
*244 _029_
*245 _030_
*246 _031_
*247 _032_
*248 _033_
*249 _034_
*250 _035_
*251 _036_
*252 _037_
*253 _038_
*254 _039_
*255 _040_
*256 _041_
*257 _042_
*258 _043_
*259 _044_
*260 _045_
*261 _046_
*262 _047_
*263 _048_
*264 _049_
*265 _050_
*266 _051_
*267 _052_
*268 _053_
*269 _054_
*270 _055_
*271 _056_
*272 _057_
*273 _058_
*274 _059_
*275 _060_
*276 _061_
*277 _062_
*278 _063_
*279 _064_
*280 _065_
*281 _066_
*282 _067_
*283 _068_
*284 _069_
*285 _070_
*286 _071_
*287 _072_
*288 _073_
*289 _074_
*290 _075_
*291 _076_
*292 _077_
*293 _078_
*294 _079_
*295 _080_
*296 _081_
*297 _082_
*298 _083_
*299 _084_
*300 _085_
*301 _086_
*302 _087_
*303 _088_
*304 _089_
*305 _090_
*306 _091_
*307 _092_
*308 _093_
*309 _094_
*310 _095_
*311 _096_
*312 _097_
*313 _098_
*314 _099_
*315 _100_
*316 _101_
*317 _102_
*318 _103_
*319 _104_
*320 _105_
*321 _106_
*322 _107_
*323 _108_
*324 _109_
*325 _110_
*326 _111_
*327 _112_
*328 _113_
*329 _114_
*330 _115_
*331 _116_
*332 _117_
*333 _118_
*334 _119_
*335 _120_
*336 _121_
*337 _122_
*338 _123_
*339 _124_
*340 _125_
*341 _126_
*342 _127_
*343 _128_
*344 _129_
*345 _130_
*346 _131_
*347 _132_
*348 _133_
*349 net1
*350 net10
*351 net100
*352 net101
*353 net102
*354 net103
*355 net104
*356 net105
*357 net106
*358 net107
*359 net108
*360 net109
*361 net11
*362 net12
*363 net13
*364 net14
*365 net15
*366 net16
*367 net17
*368 net18
*369 net19
*370 net2
*371 net20
*372 net21
*373 net22
*374 net23
*375 net24
*376 net25
*377 net26
*378 net27
*379 net28
*380 net29
*381 net3
*382 net30
*383 net31
*384 net32
*385 net33
*386 net34
*387 net35
*388 net36
*389 net37
*390 net38
*391 net39
*392 net4
*393 net40
*394 net41
*395 net42
*396 net43
*397 net44
*398 net45
*399 net46
*400 net47
*401 net48
*402 net49
*403 net5
*404 net50
*405 net51
*406 net52
*407 net53
*408 net54
*409 net55
*410 net56
*411 net57
*412 net58
*413 net59
*414 net6
*415 net60
*416 net61
*417 net62
*418 net63
*419 net64
*420 net65
*421 net66
*422 net67
*423 net68
*424 net69
*425 net7
*426 net70
*427 net71
*428 net72
*429 net73
*430 net74
*431 net75
*432 net76
*433 net77
*434 net78
*435 net79
*436 net8
*437 net80
*438 net81
*439 net82
*440 net83
*441 net84
*442 net85
*443 net86
*444 net87
*445 net88
*446 net89
*447 net9
*448 net90
*449 net91
*450 net92
*451 net93
*452 net94
*453 net95
*454 net96
*455 net97
*456 net98
*457 net99
*458 FILLER_0_109
*459 FILLER_0_113
*460 FILLER_0_125
*461 FILLER_0_137
*462 FILLER_0_141
*463 FILLER_0_15
*464 FILLER_0_153
*465 FILLER_0_165
*466 FILLER_0_169
*467 FILLER_0_181
*468 FILLER_0_193
*469 FILLER_0_197
*470 FILLER_0_209
*471 FILLER_0_221
*472 FILLER_0_225
*473 FILLER_0_237
*474 FILLER_0_249
*475 FILLER_0_253
*476 FILLER_0_265
*477 FILLER_0_27
*478 FILLER_0_277
*479 FILLER_0_281
*480 FILLER_0_29
*481 FILLER_0_293
*482 FILLER_0_3
*483 FILLER_0_305
*484 FILLER_0_309
*485 FILLER_0_321
*486 FILLER_0_333
*487 FILLER_0_337
*488 FILLER_0_349
*489 FILLER_0_361
*490 FILLER_0_365
*491 FILLER_0_377
*492 FILLER_0_389
*493 FILLER_0_393
*494 FILLER_0_405
*495 FILLER_0_41
*496 FILLER_0_417
*497 FILLER_0_421
*498 FILLER_0_433
*499 FILLER_0_445
*500 FILLER_0_449
*501 FILLER_0_461
*502 FILLER_0_473
*503 FILLER_0_477
*504 FILLER_0_489
*505 FILLER_0_501
*506 FILLER_0_505
*507 FILLER_0_517
*508 FILLER_0_529
*509 FILLER_0_53
*510 FILLER_0_533
*511 FILLER_0_545
*512 FILLER_0_557
*513 FILLER_0_561
*514 FILLER_0_57
*515 FILLER_0_573
*516 FILLER_0_585
*517 FILLER_0_589
*518 FILLER_0_601
*519 FILLER_0_613
*520 FILLER_0_617
*521 FILLER_0_629
*522 FILLER_0_641
*523 FILLER_0_645
*524 FILLER_0_657
*525 FILLER_0_669
*526 FILLER_0_673
*527 FILLER_0_685
*528 FILLER_0_69
*529 FILLER_0_697
*530 FILLER_0_701
*531 FILLER_0_713
*532 FILLER_0_725
*533 FILLER_0_729
*534 FILLER_0_81
*535 FILLER_0_85
*536 FILLER_0_97
*537 FILLER_100_109
*538 FILLER_100_121
*539 FILLER_100_133
*540 FILLER_100_139
*541 FILLER_100_141
*542 FILLER_100_15
*543 FILLER_100_153
*544 FILLER_100_165
*545 FILLER_100_177
*546 FILLER_100_189
*547 FILLER_100_195
*548 FILLER_100_197
*549 FILLER_100_209
*550 FILLER_100_221
*551 FILLER_100_233
*552 FILLER_100_245
*553 FILLER_100_251
*554 FILLER_100_253
*555 FILLER_100_265
*556 FILLER_100_27
*557 FILLER_100_277
*558 FILLER_100_289
*559 FILLER_100_29
*560 FILLER_100_3
*561 FILLER_100_301
*562 FILLER_100_307
*563 FILLER_100_309
*564 FILLER_100_321
*565 FILLER_100_333
*566 FILLER_100_345
*567 FILLER_100_357
*568 FILLER_100_363
*569 FILLER_100_368
*570 FILLER_100_380
*571 FILLER_100_392
*572 FILLER_100_404
*573 FILLER_100_41
*574 FILLER_100_416
*575 FILLER_100_421
*576 FILLER_100_433
*577 FILLER_100_445
*578 FILLER_100_457
*579 FILLER_100_469
*580 FILLER_100_475
*581 FILLER_100_477
*582 FILLER_100_489
*583 FILLER_100_501
*584 FILLER_100_513
*585 FILLER_100_521
*586 FILLER_100_526
*587 FILLER_100_53
*588 FILLER_100_533
*589 FILLER_100_545
*590 FILLER_100_557
*591 FILLER_100_569
*592 FILLER_100_581
*593 FILLER_100_587
*594 FILLER_100_589
*595 FILLER_100_601
*596 FILLER_100_613
*597 FILLER_100_625
*598 FILLER_100_637
*599 FILLER_100_643
*600 FILLER_100_645
*601 FILLER_100_65
*602 FILLER_100_657
*603 FILLER_100_669
*604 FILLER_100_681
*605 FILLER_100_687
*606 FILLER_100_699
*607 FILLER_100_701
*608 FILLER_100_713
*609 FILLER_100_725
*610 FILLER_100_77
*611 FILLER_100_83
*612 FILLER_100_85
*613 FILLER_100_97
*614 FILLER_101_105
*615 FILLER_101_111
*616 FILLER_101_113
*617 FILLER_101_125
*618 FILLER_101_137
*619 FILLER_101_149
*620 FILLER_101_15
*621 FILLER_101_161
*622 FILLER_101_167
*623 FILLER_101_169
*624 FILLER_101_181
*625 FILLER_101_193
*626 FILLER_101_205
*627 FILLER_101_217
*628 FILLER_101_223
*629 FILLER_101_225
*630 FILLER_101_237
*631 FILLER_101_249
*632 FILLER_101_261
*633 FILLER_101_27
*634 FILLER_101_273
*635 FILLER_101_279
*636 FILLER_101_281
*637 FILLER_101_293
*638 FILLER_101_3
*639 FILLER_101_305
*640 FILLER_101_317
*641 FILLER_101_329
*642 FILLER_101_335
*643 FILLER_101_337
*644 FILLER_101_349
*645 FILLER_101_357
*646 FILLER_101_381
*647 FILLER_101_389
*648 FILLER_101_39
*649 FILLER_101_393
*650 FILLER_101_405
*651 FILLER_101_417
*652 FILLER_101_429
*653 FILLER_101_441
*654 FILLER_101_447
*655 FILLER_101_449
*656 FILLER_101_461
*657 FILLER_101_473
*658 FILLER_101_485
*659 FILLER_101_497
*660 FILLER_101_503
*661 FILLER_101_505
*662 FILLER_101_51
*663 FILLER_101_517
*664 FILLER_101_529
*665 FILLER_101_541
*666 FILLER_101_55
*667 FILLER_101_553
*668 FILLER_101_559
*669 FILLER_101_561
*670 FILLER_101_57
*671 FILLER_101_573
*672 FILLER_101_585
*673 FILLER_101_597
*674 FILLER_101_609
*675 FILLER_101_615
*676 FILLER_101_617
*677 FILLER_101_629
*678 FILLER_101_641
*679 FILLER_101_653
*680 FILLER_101_665
*681 FILLER_101_671
*682 FILLER_101_673
*683 FILLER_101_681
*684 FILLER_101_69
*685 FILLER_101_705
*686 FILLER_101_717
*687 FILLER_101_725
*688 FILLER_101_729
*689 FILLER_101_81
*690 FILLER_101_93
*691 FILLER_102_109
*692 FILLER_102_121
*693 FILLER_102_133
*694 FILLER_102_139
*695 FILLER_102_141
*696 FILLER_102_15
*697 FILLER_102_153
*698 FILLER_102_165
*699 FILLER_102_177
*700 FILLER_102_189
*701 FILLER_102_195
*702 FILLER_102_197
*703 FILLER_102_209
*704 FILLER_102_221
*705 FILLER_102_233
*706 FILLER_102_245
*707 FILLER_102_251
*708 FILLER_102_253
*709 FILLER_102_265
*710 FILLER_102_27
*711 FILLER_102_277
*712 FILLER_102_289
*713 FILLER_102_29
*714 FILLER_102_3
*715 FILLER_102_301
*716 FILLER_102_307
*717 FILLER_102_309
*718 FILLER_102_321
*719 FILLER_102_333
*720 FILLER_102_345
*721 FILLER_102_357
*722 FILLER_102_363
*723 FILLER_102_368
*724 FILLER_102_380
*725 FILLER_102_403
*726 FILLER_102_41
*727 FILLER_102_415
*728 FILLER_102_419
*729 FILLER_102_421
*730 FILLER_102_433
*731 FILLER_102_445
*732 FILLER_102_457
*733 FILLER_102_469
*734 FILLER_102_475
*735 FILLER_102_477
*736 FILLER_102_489
*737 FILLER_102_501
*738 FILLER_102_513
*739 FILLER_102_525
*740 FILLER_102_53
*741 FILLER_102_531
*742 FILLER_102_533
*743 FILLER_102_545
*744 FILLER_102_557
*745 FILLER_102_569
*746 FILLER_102_581
*747 FILLER_102_587
*748 FILLER_102_589
*749 FILLER_102_601
*750 FILLER_102_613
*751 FILLER_102_625
*752 FILLER_102_637
*753 FILLER_102_643
*754 FILLER_102_645
*755 FILLER_102_65
*756 FILLER_102_657
*757 FILLER_102_669
*758 FILLER_102_675
*759 FILLER_102_679
*760 FILLER_102_686
*761 FILLER_102_693
*762 FILLER_102_699
*763 FILLER_102_704
*764 FILLER_102_716
*765 FILLER_102_728
*766 FILLER_102_732
*767 FILLER_102_77
*768 FILLER_102_83
*769 FILLER_102_85
*770 FILLER_102_97
*771 FILLER_103_105
*772 FILLER_103_111
*773 FILLER_103_113
*774 FILLER_103_125
*775 FILLER_103_137
*776 FILLER_103_149
*777 FILLER_103_15
*778 FILLER_103_161
*779 FILLER_103_167
*780 FILLER_103_169
*781 FILLER_103_181
*782 FILLER_103_193
*783 FILLER_103_205
*784 FILLER_103_217
*785 FILLER_103_223
*786 FILLER_103_225
*787 FILLER_103_237
*788 FILLER_103_249
*789 FILLER_103_261
*790 FILLER_103_27
*791 FILLER_103_273
*792 FILLER_103_279
*793 FILLER_103_281
*794 FILLER_103_293
*795 FILLER_103_3
*796 FILLER_103_305
*797 FILLER_103_317
*798 FILLER_103_329
*799 FILLER_103_335
*800 FILLER_103_337
*801 FILLER_103_349
*802 FILLER_103_361
*803 FILLER_103_373
*804 FILLER_103_378
*805 FILLER_103_382
*806 FILLER_103_386
*807 FILLER_103_39
*808 FILLER_103_396
*809 FILLER_103_408
*810 FILLER_103_420
*811 FILLER_103_432
*812 FILLER_103_444
*813 FILLER_103_449
*814 FILLER_103_461
*815 FILLER_103_473
*816 FILLER_103_485
*817 FILLER_103_497
*818 FILLER_103_503
*819 FILLER_103_505
*820 FILLER_103_51
*821 FILLER_103_517
*822 FILLER_103_529
*823 FILLER_103_541
*824 FILLER_103_55
*825 FILLER_103_553
*826 FILLER_103_559
*827 FILLER_103_561
*828 FILLER_103_57
*829 FILLER_103_573
*830 FILLER_103_585
*831 FILLER_103_597
*832 FILLER_103_609
*833 FILLER_103_615
*834 FILLER_103_617
*835 FILLER_103_629
*836 FILLER_103_641
*837 FILLER_103_653
*838 FILLER_103_665
*839 FILLER_103_671
*840 FILLER_103_673
*841 FILLER_103_685
*842 FILLER_103_69
*843 FILLER_103_708
*844 FILLER_103_720
*845 FILLER_103_729
*846 FILLER_103_81
*847 FILLER_103_93
*848 FILLER_104_109
*849 FILLER_104_121
*850 FILLER_104_133
*851 FILLER_104_139
*852 FILLER_104_141
*853 FILLER_104_15
*854 FILLER_104_153
*855 FILLER_104_165
*856 FILLER_104_177
*857 FILLER_104_189
*858 FILLER_104_195
*859 FILLER_104_197
*860 FILLER_104_209
*861 FILLER_104_221
*862 FILLER_104_233
*863 FILLER_104_245
*864 FILLER_104_251
*865 FILLER_104_253
*866 FILLER_104_265
*867 FILLER_104_27
*868 FILLER_104_277
*869 FILLER_104_289
*870 FILLER_104_29
*871 FILLER_104_3
*872 FILLER_104_301
*873 FILLER_104_307
*874 FILLER_104_309
*875 FILLER_104_321
*876 FILLER_104_333
*877 FILLER_104_345
*878 FILLER_104_357
*879 FILLER_104_363
*880 FILLER_104_365
*881 FILLER_104_373
*882 FILLER_104_395
*883 FILLER_104_407
*884 FILLER_104_41
*885 FILLER_104_419
*886 FILLER_104_421
*887 FILLER_104_433
*888 FILLER_104_445
*889 FILLER_104_457
*890 FILLER_104_469
*891 FILLER_104_475
*892 FILLER_104_477
*893 FILLER_104_489
*894 FILLER_104_501
*895 FILLER_104_513
*896 FILLER_104_525
*897 FILLER_104_53
*898 FILLER_104_531
*899 FILLER_104_533
*900 FILLER_104_545
*901 FILLER_104_557
*902 FILLER_104_569
*903 FILLER_104_581
*904 FILLER_104_587
*905 FILLER_104_589
*906 FILLER_104_601
*907 FILLER_104_613
*908 FILLER_104_625
*909 FILLER_104_637
*910 FILLER_104_643
*911 FILLER_104_645
*912 FILLER_104_65
*913 FILLER_104_657
*914 FILLER_104_669
*915 FILLER_104_681
*916 FILLER_104_693
*917 FILLER_104_699
*918 FILLER_104_701
*919 FILLER_104_713
*920 FILLER_104_725
*921 FILLER_104_77
*922 FILLER_104_83
*923 FILLER_104_85
*924 FILLER_104_97
*925 FILLER_105_105
*926 FILLER_105_111
*927 FILLER_105_113
*928 FILLER_105_125
*929 FILLER_105_137
*930 FILLER_105_149
*931 FILLER_105_15
*932 FILLER_105_161
*933 FILLER_105_167
*934 FILLER_105_169
*935 FILLER_105_181
*936 FILLER_105_193
*937 FILLER_105_205
*938 FILLER_105_217
*939 FILLER_105_223
*940 FILLER_105_225
*941 FILLER_105_237
*942 FILLER_105_249
*943 FILLER_105_261
*944 FILLER_105_27
*945 FILLER_105_276
*946 FILLER_105_3
*947 FILLER_105_302
*948 FILLER_105_314
*949 FILLER_105_326
*950 FILLER_105_334
*951 FILLER_105_337
*952 FILLER_105_349
*953 FILLER_105_361
*954 FILLER_105_373
*955 FILLER_105_385
*956 FILLER_105_39
*957 FILLER_105_391
*958 FILLER_105_393
*959 FILLER_105_405
*960 FILLER_105_417
*961 FILLER_105_429
*962 FILLER_105_441
*963 FILLER_105_447
*964 FILLER_105_449
*965 FILLER_105_461
*966 FILLER_105_473
*967 FILLER_105_485
*968 FILLER_105_497
*969 FILLER_105_503
*970 FILLER_105_505
*971 FILLER_105_51
*972 FILLER_105_517
*973 FILLER_105_529
*974 FILLER_105_541
*975 FILLER_105_55
*976 FILLER_105_553
*977 FILLER_105_559
*978 FILLER_105_561
*979 FILLER_105_57
*980 FILLER_105_573
*981 FILLER_105_580
*982 FILLER_105_605
*983 FILLER_105_613
*984 FILLER_105_617
*985 FILLER_105_629
*986 FILLER_105_641
*987 FILLER_105_653
*988 FILLER_105_665
*989 FILLER_105_671
*990 FILLER_105_673
*991 FILLER_105_685
*992 FILLER_105_69
*993 FILLER_105_697
*994 FILLER_105_709
*995 FILLER_105_721
*996 FILLER_105_727
*997 FILLER_105_729
*998 FILLER_105_81
*999 FILLER_105_93
*1000 FILLER_106_109
*1001 FILLER_106_121
*1002 FILLER_106_133
*1003 FILLER_106_139
*1004 FILLER_106_141
*1005 FILLER_106_15
*1006 FILLER_106_153
*1007 FILLER_106_165
*1008 FILLER_106_177
*1009 FILLER_106_189
*1010 FILLER_106_195
*1011 FILLER_106_197
*1012 FILLER_106_209
*1013 FILLER_106_221
*1014 FILLER_106_233
*1015 FILLER_106_245
*1016 FILLER_106_251
*1017 FILLER_106_253
*1018 FILLER_106_265
*1019 FILLER_106_27
*1020 FILLER_106_273
*1021 FILLER_106_277
*1022 FILLER_106_289
*1023 FILLER_106_29
*1024 FILLER_106_3
*1025 FILLER_106_301
*1026 FILLER_106_307
*1027 FILLER_106_309
*1028 FILLER_106_321
*1029 FILLER_106_333
*1030 FILLER_106_345
*1031 FILLER_106_357
*1032 FILLER_106_363
*1033 FILLER_106_365
*1034 FILLER_106_373
*1035 FILLER_106_378
*1036 FILLER_106_390
*1037 FILLER_106_402
*1038 FILLER_106_41
*1039 FILLER_106_414
*1040 FILLER_106_421
*1041 FILLER_106_433
*1042 FILLER_106_445
*1043 FILLER_106_457
*1044 FILLER_106_469
*1045 FILLER_106_475
*1046 FILLER_106_477
*1047 FILLER_106_489
*1048 FILLER_106_501
*1049 FILLER_106_513
*1050 FILLER_106_525
*1051 FILLER_106_53
*1052 FILLER_106_531
*1053 FILLER_106_533
*1054 FILLER_106_545
*1055 FILLER_106_557
*1056 FILLER_106_569
*1057 FILLER_106_581
*1058 FILLER_106_587
*1059 FILLER_106_592
*1060 FILLER_106_604
*1061 FILLER_106_616
*1062 FILLER_106_628
*1063 FILLER_106_640
*1064 FILLER_106_645
*1065 FILLER_106_65
*1066 FILLER_106_657
*1067 FILLER_106_669
*1068 FILLER_106_681
*1069 FILLER_106_693
*1070 FILLER_106_699
*1071 FILLER_106_701
*1072 FILLER_106_713
*1073 FILLER_106_725
*1074 FILLER_106_77
*1075 FILLER_106_83
*1076 FILLER_106_85
*1077 FILLER_106_97
*1078 FILLER_107_105
*1079 FILLER_107_111
*1080 FILLER_107_113
*1081 FILLER_107_125
*1082 FILLER_107_137
*1083 FILLER_107_149
*1084 FILLER_107_15
*1085 FILLER_107_161
*1086 FILLER_107_167
*1087 FILLER_107_169
*1088 FILLER_107_181
*1089 FILLER_107_193
*1090 FILLER_107_205
*1091 FILLER_107_217
*1092 FILLER_107_223
*1093 FILLER_107_225
*1094 FILLER_107_237
*1095 FILLER_107_249
*1096 FILLER_107_261
*1097 FILLER_107_27
*1098 FILLER_107_273
*1099 FILLER_107_279
*1100 FILLER_107_281
*1101 FILLER_107_293
*1102 FILLER_107_3
*1103 FILLER_107_305
*1104 FILLER_107_317
*1105 FILLER_107_329
*1106 FILLER_107_335
*1107 FILLER_107_337
*1108 FILLER_107_349
*1109 FILLER_107_361
*1110 FILLER_107_373
*1111 FILLER_107_385
*1112 FILLER_107_39
*1113 FILLER_107_391
*1114 FILLER_107_393
*1115 FILLER_107_405
*1116 FILLER_107_417
*1117 FILLER_107_429
*1118 FILLER_107_441
*1119 FILLER_107_447
*1120 FILLER_107_449
*1121 FILLER_107_461
*1122 FILLER_107_473
*1123 FILLER_107_485
*1124 FILLER_107_490
*1125 FILLER_107_502
*1126 FILLER_107_505
*1127 FILLER_107_51
*1128 FILLER_107_517
*1129 FILLER_107_529
*1130 FILLER_107_541
*1131 FILLER_107_55
*1132 FILLER_107_553
*1133 FILLER_107_559
*1134 FILLER_107_561
*1135 FILLER_107_57
*1136 FILLER_107_573
*1137 FILLER_107_585
*1138 FILLER_107_597
*1139 FILLER_107_609
*1140 FILLER_107_615
*1141 FILLER_107_617
*1142 FILLER_107_629
*1143 FILLER_107_641
*1144 FILLER_107_653
*1145 FILLER_107_665
*1146 FILLER_107_671
*1147 FILLER_107_673
*1148 FILLER_107_685
*1149 FILLER_107_69
*1150 FILLER_107_697
*1151 FILLER_107_709
*1152 FILLER_107_721
*1153 FILLER_107_727
*1154 FILLER_107_729
*1155 FILLER_107_81
*1156 FILLER_107_93
*1157 FILLER_108_109
*1158 FILLER_108_121
*1159 FILLER_108_133
*1160 FILLER_108_139
*1161 FILLER_108_141
*1162 FILLER_108_15
*1163 FILLER_108_153
*1164 FILLER_108_165
*1165 FILLER_108_177
*1166 FILLER_108_189
*1167 FILLER_108_195
*1168 FILLER_108_197
*1169 FILLER_108_209
*1170 FILLER_108_221
*1171 FILLER_108_233
*1172 FILLER_108_245
*1173 FILLER_108_251
*1174 FILLER_108_253
*1175 FILLER_108_265
*1176 FILLER_108_27
*1177 FILLER_108_277
*1178 FILLER_108_289
*1179 FILLER_108_29
*1180 FILLER_108_3
*1181 FILLER_108_301
*1182 FILLER_108_307
*1183 FILLER_108_309
*1184 FILLER_108_321
*1185 FILLER_108_333
*1186 FILLER_108_345
*1187 FILLER_108_357
*1188 FILLER_108_363
*1189 FILLER_108_365
*1190 FILLER_108_377
*1191 FILLER_108_389
*1192 FILLER_108_401
*1193 FILLER_108_41
*1194 FILLER_108_413
*1195 FILLER_108_419
*1196 FILLER_108_421
*1197 FILLER_108_433
*1198 FILLER_108_445
*1199 FILLER_108_457
*1200 FILLER_108_469
*1201 FILLER_108_475
*1202 FILLER_108_477
*1203 FILLER_108_485
*1204 FILLER_108_507
*1205 FILLER_108_519
*1206 FILLER_108_53
*1207 FILLER_108_531
*1208 FILLER_108_533
*1209 FILLER_108_545
*1210 FILLER_108_557
*1211 FILLER_108_569
*1212 FILLER_108_575
*1213 FILLER_108_579
*1214 FILLER_108_587
*1215 FILLER_108_610
*1216 FILLER_108_622
*1217 FILLER_108_634
*1218 FILLER_108_642
*1219 FILLER_108_645
*1220 FILLER_108_65
*1221 FILLER_108_657
*1222 FILLER_108_669
*1223 FILLER_108_681
*1224 FILLER_108_693
*1225 FILLER_108_699
*1226 FILLER_108_701
*1227 FILLER_108_713
*1228 FILLER_108_725
*1229 FILLER_108_77
*1230 FILLER_108_83
*1231 FILLER_108_85
*1232 FILLER_108_97
*1233 FILLER_109_105
*1234 FILLER_109_111
*1235 FILLER_109_113
*1236 FILLER_109_125
*1237 FILLER_109_137
*1238 FILLER_109_149
*1239 FILLER_109_15
*1240 FILLER_109_161
*1241 FILLER_109_167
*1242 FILLER_109_169
*1243 FILLER_109_181
*1244 FILLER_109_193
*1245 FILLER_109_205
*1246 FILLER_109_217
*1247 FILLER_109_223
*1248 FILLER_109_225
*1249 FILLER_109_237
*1250 FILLER_109_249
*1251 FILLER_109_261
*1252 FILLER_109_27
*1253 FILLER_109_273
*1254 FILLER_109_279
*1255 FILLER_109_281
*1256 FILLER_109_293
*1257 FILLER_109_3
*1258 FILLER_109_305
*1259 FILLER_109_317
*1260 FILLER_109_328
*1261 FILLER_109_340
*1262 FILLER_109_352
*1263 FILLER_109_364
*1264 FILLER_109_376
*1265 FILLER_109_384
*1266 FILLER_109_388
*1267 FILLER_109_39
*1268 FILLER_109_414
*1269 FILLER_109_426
*1270 FILLER_109_438
*1271 FILLER_109_446
*1272 FILLER_109_449
*1273 FILLER_109_461
*1274 FILLER_109_473
*1275 FILLER_109_485
*1276 FILLER_109_490
*1277 FILLER_109_502
*1278 FILLER_109_505
*1279 FILLER_109_51
*1280 FILLER_109_517
*1281 FILLER_109_529
*1282 FILLER_109_541
*1283 FILLER_109_55
*1284 FILLER_109_553
*1285 FILLER_109_559
*1286 FILLER_109_561
*1287 FILLER_109_57
*1288 FILLER_109_573
*1289 FILLER_109_584
*1290 FILLER_109_596
*1291 FILLER_109_608
*1292 FILLER_109_617
*1293 FILLER_109_629
*1294 FILLER_109_641
*1295 FILLER_109_653
*1296 FILLER_109_665
*1297 FILLER_109_671
*1298 FILLER_109_673
*1299 FILLER_109_685
*1300 FILLER_109_69
*1301 FILLER_109_697
*1302 FILLER_109_709
*1303 FILLER_109_721
*1304 FILLER_109_727
*1305 FILLER_109_729
*1306 FILLER_109_81
*1307 FILLER_109_93
*1308 FILLER_10_109
*1309 FILLER_10_121
*1310 FILLER_10_133
*1311 FILLER_10_139
*1312 FILLER_10_141
*1313 FILLER_10_15
*1314 FILLER_10_153
*1315 FILLER_10_165
*1316 FILLER_10_177
*1317 FILLER_10_189
*1318 FILLER_10_195
*1319 FILLER_10_197
*1320 FILLER_10_209
*1321 FILLER_10_221
*1322 FILLER_10_233
*1323 FILLER_10_245
*1324 FILLER_10_251
*1325 FILLER_10_253
*1326 FILLER_10_265
*1327 FILLER_10_27
*1328 FILLER_10_277
*1329 FILLER_10_289
*1330 FILLER_10_29
*1331 FILLER_10_3
*1332 FILLER_10_301
*1333 FILLER_10_307
*1334 FILLER_10_309
*1335 FILLER_10_321
*1336 FILLER_10_333
*1337 FILLER_10_345
*1338 FILLER_10_357
*1339 FILLER_10_363
*1340 FILLER_10_365
*1341 FILLER_10_377
*1342 FILLER_10_389
*1343 FILLER_10_401
*1344 FILLER_10_41
*1345 FILLER_10_413
*1346 FILLER_10_419
*1347 FILLER_10_421
*1348 FILLER_10_433
*1349 FILLER_10_445
*1350 FILLER_10_457
*1351 FILLER_10_469
*1352 FILLER_10_475
*1353 FILLER_10_477
*1354 FILLER_10_489
*1355 FILLER_10_497
*1356 FILLER_10_503
*1357 FILLER_10_528
*1358 FILLER_10_53
*1359 FILLER_10_533
*1360 FILLER_10_545
*1361 FILLER_10_557
*1362 FILLER_10_569
*1363 FILLER_10_581
*1364 FILLER_10_587
*1365 FILLER_10_589
*1366 FILLER_10_601
*1367 FILLER_10_613
*1368 FILLER_10_625
*1369 FILLER_10_637
*1370 FILLER_10_643
*1371 FILLER_10_645
*1372 FILLER_10_65
*1373 FILLER_10_657
*1374 FILLER_10_669
*1375 FILLER_10_681
*1376 FILLER_10_693
*1377 FILLER_10_699
*1378 FILLER_10_701
*1379 FILLER_10_713
*1380 FILLER_10_725
*1381 FILLER_10_77
*1382 FILLER_10_83
*1383 FILLER_10_85
*1384 FILLER_10_97
*1385 FILLER_110_109
*1386 FILLER_110_121
*1387 FILLER_110_133
*1388 FILLER_110_139
*1389 FILLER_110_141
*1390 FILLER_110_15
*1391 FILLER_110_153
*1392 FILLER_110_165
*1393 FILLER_110_177
*1394 FILLER_110_189
*1395 FILLER_110_195
*1396 FILLER_110_197
*1397 FILLER_110_209
*1398 FILLER_110_221
*1399 FILLER_110_233
*1400 FILLER_110_245
*1401 FILLER_110_251
*1402 FILLER_110_253
*1403 FILLER_110_265
*1404 FILLER_110_27
*1405 FILLER_110_277
*1406 FILLER_110_289
*1407 FILLER_110_29
*1408 FILLER_110_3
*1409 FILLER_110_301
*1410 FILLER_110_307
*1411 FILLER_110_309
*1412 FILLER_110_321
*1413 FILLER_110_345
*1414 FILLER_110_357
*1415 FILLER_110_363
*1416 FILLER_110_365
*1417 FILLER_110_377
*1418 FILLER_110_392
*1419 FILLER_110_404
*1420 FILLER_110_41
*1421 FILLER_110_416
*1422 FILLER_110_421
*1423 FILLER_110_433
*1424 FILLER_110_445
*1425 FILLER_110_457
*1426 FILLER_110_469
*1427 FILLER_110_475
*1428 FILLER_110_477
*1429 FILLER_110_489
*1430 FILLER_110_501
*1431 FILLER_110_513
*1432 FILLER_110_525
*1433 FILLER_110_53
*1434 FILLER_110_531
*1435 FILLER_110_533
*1436 FILLER_110_545
*1437 FILLER_110_557
*1438 FILLER_110_569
*1439 FILLER_110_581
*1440 FILLER_110_587
*1441 FILLER_110_589
*1442 FILLER_110_601
*1443 FILLER_110_613
*1444 FILLER_110_625
*1445 FILLER_110_637
*1446 FILLER_110_643
*1447 FILLER_110_645
*1448 FILLER_110_65
*1449 FILLER_110_657
*1450 FILLER_110_669
*1451 FILLER_110_681
*1452 FILLER_110_693
*1453 FILLER_110_699
*1454 FILLER_110_701
*1455 FILLER_110_713
*1456 FILLER_110_725
*1457 FILLER_110_77
*1458 FILLER_110_83
*1459 FILLER_110_85
*1460 FILLER_110_97
*1461 FILLER_111_105
*1462 FILLER_111_111
*1463 FILLER_111_113
*1464 FILLER_111_125
*1465 FILLER_111_137
*1466 FILLER_111_149
*1467 FILLER_111_15
*1468 FILLER_111_161
*1469 FILLER_111_167
*1470 FILLER_111_169
*1471 FILLER_111_181
*1472 FILLER_111_193
*1473 FILLER_111_202
*1474 FILLER_111_209
*1475 FILLER_111_221
*1476 FILLER_111_225
*1477 FILLER_111_237
*1478 FILLER_111_249
*1479 FILLER_111_261
*1480 FILLER_111_27
*1481 FILLER_111_273
*1482 FILLER_111_279
*1483 FILLER_111_281
*1484 FILLER_111_293
*1485 FILLER_111_3
*1486 FILLER_111_305
*1487 FILLER_111_317
*1488 FILLER_111_329
*1489 FILLER_111_335
*1490 FILLER_111_337
*1491 FILLER_111_349
*1492 FILLER_111_361
*1493 FILLER_111_373
*1494 FILLER_111_385
*1495 FILLER_111_39
*1496 FILLER_111_391
*1497 FILLER_111_393
*1498 FILLER_111_405
*1499 FILLER_111_417
*1500 FILLER_111_429
*1501 FILLER_111_441
*1502 FILLER_111_447
*1503 FILLER_111_449
*1504 FILLER_111_461
*1505 FILLER_111_483
*1506 FILLER_111_495
*1507 FILLER_111_503
*1508 FILLER_111_505
*1509 FILLER_111_51
*1510 FILLER_111_517
*1511 FILLER_111_529
*1512 FILLER_111_541
*1513 FILLER_111_55
*1514 FILLER_111_553
*1515 FILLER_111_559
*1516 FILLER_111_561
*1517 FILLER_111_57
*1518 FILLER_111_573
*1519 FILLER_111_585
*1520 FILLER_111_597
*1521 FILLER_111_609
*1522 FILLER_111_615
*1523 FILLER_111_617
*1524 FILLER_111_629
*1525 FILLER_111_641
*1526 FILLER_111_653
*1527 FILLER_111_665
*1528 FILLER_111_671
*1529 FILLER_111_673
*1530 FILLER_111_685
*1531 FILLER_111_69
*1532 FILLER_111_697
*1533 FILLER_111_709
*1534 FILLER_111_721
*1535 FILLER_111_727
*1536 FILLER_111_729
*1537 FILLER_111_81
*1538 FILLER_111_93
*1539 FILLER_112_109
*1540 FILLER_112_121
*1541 FILLER_112_133
*1542 FILLER_112_139
*1543 FILLER_112_141
*1544 FILLER_112_15
*1545 FILLER_112_153
*1546 FILLER_112_165
*1547 FILLER_112_177
*1548 FILLER_112_189
*1549 FILLER_112_195
*1550 FILLER_112_197
*1551 FILLER_112_219
*1552 FILLER_112_231
*1553 FILLER_112_243
*1554 FILLER_112_251
*1555 FILLER_112_253
*1556 FILLER_112_265
*1557 FILLER_112_27
*1558 FILLER_112_277
*1559 FILLER_112_289
*1560 FILLER_112_29
*1561 FILLER_112_3
*1562 FILLER_112_301
*1563 FILLER_112_307
*1564 FILLER_112_309
*1565 FILLER_112_321
*1566 FILLER_112_333
*1567 FILLER_112_345
*1568 FILLER_112_357
*1569 FILLER_112_363
*1570 FILLER_112_365
*1571 FILLER_112_377
*1572 FILLER_112_389
*1573 FILLER_112_401
*1574 FILLER_112_41
*1575 FILLER_112_413
*1576 FILLER_112_419
*1577 FILLER_112_421
*1578 FILLER_112_433
*1579 FILLER_112_445
*1580 FILLER_112_457
*1581 FILLER_112_462
*1582 FILLER_112_469
*1583 FILLER_112_475
*1584 FILLER_112_477
*1585 FILLER_112_489
*1586 FILLER_112_501
*1587 FILLER_112_513
*1588 FILLER_112_525
*1589 FILLER_112_53
*1590 FILLER_112_531
*1591 FILLER_112_533
*1592 FILLER_112_545
*1593 FILLER_112_557
*1594 FILLER_112_569
*1595 FILLER_112_581
*1596 FILLER_112_587
*1597 FILLER_112_589
*1598 FILLER_112_601
*1599 FILLER_112_613
*1600 FILLER_112_625
*1601 FILLER_112_637
*1602 FILLER_112_643
*1603 FILLER_112_645
*1604 FILLER_112_65
*1605 FILLER_112_657
*1606 FILLER_112_669
*1607 FILLER_112_681
*1608 FILLER_112_693
*1609 FILLER_112_699
*1610 FILLER_112_701
*1611 FILLER_112_713
*1612 FILLER_112_725
*1613 FILLER_112_77
*1614 FILLER_112_83
*1615 FILLER_112_85
*1616 FILLER_112_97
*1617 FILLER_113_105
*1618 FILLER_113_111